 ****** HSPICE -- J-2014.09-SP2-2 64-BIT (Apr 17 2015) win64 ******             
  Copyright (C) 2014 Synopsys, Inc. All Rights Reserved.                        
  Unpublished-rights reserved under US copyright laws.
  This program is protected by law and is subject to the
  terms and conditions of the license agreement from Synopsys.
  Use of this program is your acceptance to be bound by the
  license agreement. HSPICE is the trademark of Synopsys, Inc.
  Input File: full adder.sp                                                     
  Command line options: -i full adder.sp -o full adder.lis
  lic:  
  lic: FLEXlm: v10.9.8 
  lic: USER:   ASUS                 HOSTNAME: LAPTOP-A6DHPUDS 
  lic: HOSTID: "046c59f85f60 005056c00001 005056c00008 046c59f85f5c 046c59f85f5d
  066c59f85f5c" PID:  
  lic: Using FLEXlm license file: 
  lic: 27000@LAPTOP-A6DHPUDS 
  lic: Checkout 1 hspice 
  lic: License/Maintenance for hspice will expire on 30-dec-2030/2019.2019 
  lic: 1(in_use)/99(total) FLOATING license(s) on SERVER 27000@LAPTOP-A6DHPUDS 
  lic:   
 Init: read install configuration file: C:\synopsys\Hspice_J-2014.09-SP2-2\meta.cfg
 **warning** unexpected value for post
1****** HSPICE -- J-2014.09-SP2-2 64-BIT (Apr 17 2015) win64 ******             
 ******  
 

 ****** mos   model parameters tnom=  25.000 temp=  25.000 ******
 Model Name: nmos  
 BSIM4 Model (Level 54)
    MOBMOD = 0
    BINUNIT = 1
    PARAMCHK = 1
    CAPMOD = 2
    DIOMOD = 1
    RDSMOD = 0
    TRNQSMOD = 0
    ACNQSMOD = 0
    RBODYMOD = 1
    RGATEMOD = 1
    PERMOD = 1
    GEOMOD = 1
    RGEOMOD = 0
    FNOIMOD = 1
    TNOIMOD = 0
    IGCMOD = 1
    IGBMOD = 1
    STIMOD = 0
    VERSION =      4 
    TOXREF = 1.4e-009 
    TOXE = 1.4e-009 
    TOXP = 8e-010 
    TOXM = 1.4e-009 
    DTOX = 6e-010 
    EPSROX =    3.9 
    CDSC =   0.07 
    CDSCB =      0 
    CDSCD =   0.02 
    CIT =      0 
    NFACTOR =    1.5 
    XJ = 5e-008 
    VSAT = 2.5e+005 
    A0 =      0 
    AGS =      0 
    A1 =      0 
    A2 =      1 
    AT = 5.3e+004 
    KETA =      0 
    NSUB = 6e+016 
    NDEP = 4.1e+018 
    NSD = 2e+020 
    NGATE = 5e+020 
    GAMMA1 =      0 
    GAMMA2 =      0 
    VBX =      0 
    VBM =     -3 
    XT = 1.55e-007 
    K1 =    0.5 
    KT1 =  -0.37 
    KT1L =      0 
    KT2 = -0.042 
    K2 =   0.05 
    K3 =      0 
    K3B =      0 
    LPE0 =      0 
    LPEB =      0 
    DVTP0 =      0 
    DVTP1 =      0 
    W0 =      0 
    DVT0 =      1 
    DVT1 =   0.95 
    DVT2 =      0 
    DVT0W =      0 
    DVT1W =      0 
    DVT2W =      0 
    DROUT =   0.45 
    DSUB =   0.36 
    VTH0 = 0.4225 
    EU =   1.67 
    UA = 6e-010 
    UA1 = 1e-009 
    UB = 1.3e-018 
    UB1 = -3.5e-019 
    UC =     -0 
    UC1 =      0 
    U0 =  0.039 
    UTE =   -1.5 
    VOFF =  -0.09 
    VOFFL =      0 
    MINV =      0 
    FPROUT =      0 
    PDITS =   0.12 
    PDITSD =      0 
    PDITSL =      0 
    DELTA = 0.0189 
    RDSW =    200 
    RDSWMIN =      0 
    RDWMIN =      0 
    RSWMIN =      0 
    RDW =    100 
    RSW =    100 
    PRWG =      0 
    PRWB =      0 
    PRT =      0 
    ETA0 =  0.035 
    ETAB =      0 
    PCLM =  0.001 
    PDIBLC1 =      0 
    PDIBLC2 = 1e-009 
    PDIBLCB =      0 
    PSCBE1 =      0 
    PSCBE2 = 1e-010 
    PVAG =      0 
    WR =      1 
    DWG =      0 
    DWB =      0 
    XW =      0 
    XWREF =      0 
    XL =      0 
    XLREF =      0 
    B0 =      0 
    B1 =      0 
    ALPHA0 =  0.074 
    ALPHA1 =  0.005 
    AGIDL = 0.0002 
    BGIDL = 2.1e+009 
    CGIDL = 0.0002 
    PHIN =      0 
    EGIDL =    0.8 
    AIGC =  0.012 
    BIGC = 0.0028 
    CIGC =  0.002 
    AIGSD =  0.012 
    BIGSD = 0.0028 
    CIGSD =  0.002 
    AIGBACC =  0.012 
    BIGBACC = 0.0028 
    CIGBACC =  0.002 
    AIGBINV =  0.014 
    BIGBINV =  0.004 
    CIGBINV =  0.004 
    NIGC = 1e-008 
    NIGBINV = 1e-008 
    NIGBACC = 1e-008 
    NTOX =      1 
    EIGBINV =    1.1 
    PIGCD =      1 
    POXEDGE =      1 
    XRCRG1 =     12 
    TNOIA =    1.5 
    TNOIB =    3.5 
    NTNOI =      1 
    XRCRG2 =      5 
    BETA0 =     30 
    IJTHDFWD =   0.01 
    IJTHSFWD =   0.01 
    IJTHDREV =  0.001 
    IJTHSREV =  0.001 
    XJBVD =      1 
    XJBVS =      1 
    BVD =     10 
    BVS =     10 
    VFB = -1.043 
    GBMIN = 1e-010 
    RBDB =     15 
    RBPB =      5 
    RBSB =     15 
    RBPS =     15 
    RBPD =     15 
    CGSL = 2.495e-010 
    CGDL = 2.495e-010 
    CKAPPAS =   0.01 
    CKAPPAD =   0.01 
    CF = 1.244e-010 
    CLC = 1e-007 
    CLE =    0.6 
    DWC =      0 
    DLC = 8.5e-009 
    DLCIG = 8.5e-009 
    DWJ =      0 
    VFBCV =     -1 
    ACDE =      1 
    MOIN =     15 
    NOFF =    0.9 
    VOFFCV =   0.02 
    DMCG =      0 
    DMCI =      0 
    DMDG =      0 
    DMCGT =      0 
    XGW =      0 
    XGL =      0 
    RSHG =    0.4 
    NGCON =      1 
    TCJ =  0.001 
    TPB =  0.005 
    TCJSW =  0.001 
    TPBSW =  0.005 
    TCJSWG =  0.001 
    TPBSWG =  0.005 
    SK0 =      0 
    SK1 =      0 
    SK2 =      0 
    SL = 2e-006 
    SW = 2e-006 
    K =      0 
    TNOM =  300.1 
    CGSO = 2.1e-010 
    CGDO = 2.1e-010 
    CGBO = 2.56e-011 
    XPART =      0 
    RSH =      0 
    JSS = 0.0001 
    JSWS = 1e-011 
    JSWGS = 1e-010 
    PBS =      1 
    MJS =    0.5 
    PBSWS =      1 
    MJSWS =   0.33 
    CJS = 0.0005 
    CJSWS = 5e-010 
    NJS =      1 
    PBSWGS =      1 
    MJSWGS =   0.33 
    CJSWGS = 3e-010 
    XTIS =      3 
    JSD = 0.0001 
    JSWD = 1e-011 
    JSWGD = 1e-010 
    PBD =      1 
    MJD =    0.5 
    PBSWD =      1 
    MJSWD =   0.33 
    CJD = 0.0005 
    CJSWD = 5e-010 
    NJD =      1 
    PBSWGD =      1 
    MJSWGD =   0.33 
    CJSWGD = 5e-010 
    XTID =      3 
    LMLT =      1 
    WMLT =      1 
    LINT = 8.5e-009 
    LL =      0 
    LLC =      0 
    LLN =      1 
    LW =      0 
    LWC =      0 
    LWN =      1 
    LWL =      0 
    LWLC =      0 
    LMIN =      0 
    LMAX =      1 
    WINT =      0 
    WL =      0 
    WLC =      0 
    WLN =      1 
    WW =      0 
    WWC =      0 
    WWN =      1 
    WWL =      0 
    WWLC =      0 
    WMIN =      0 
    WMAX =      1 
    NOIA = 6.25e+041 
    NOIB = 3.125e+026 
    NOIC = 8.75e+009 
    EM = 4.1e+007 
    EF =      1 
    AF =      1 
    KF =      0 
    TRS =      0 
    TRD =      0 
 Model Name: pmos  
 BSIM4 Model (Level 54)
    MOBMOD = 0
    BINUNIT = 1
    PARAMCHK = 1
    CAPMOD = 2
    DIOMOD = 1
    RDSMOD = 0
    TRNQSMOD = 0
    ACNQSMOD = 0
    RBODYMOD = 1
    RGATEMOD = 1
    PERMOD = 1
    GEOMOD = 1
    RGEOMOD = 0
    FNOIMOD = 1
    TNOIMOD = 0
    IGCMOD = 1
    IGBMOD = 1
    STIMOD = 0
    VERSION =      4 
    TOXREF = 1.5e-009 
    TOXE = 1.5e-009 
    TOXP = 8e-010 
    TOXM = 1.5e-009 
    DTOX = 7e-010 
    EPSROX =    3.9 
    CDSC =   0.05 
    CDSCB =      0 
    CDSCD =   0.02 
    CIT =      0 
    NFACTOR =    1.6 
    XJ = 1.5e-008 
    VSAT = 7.613e+004 
    A0 =      0 
    AGS =      0 
    A1 =      0 
    A2 =  0.999 
    AT = 3.3e+004 
    KETA =      0 
    NSUB = 6e+016 
    NDEP = 3.5e+018 
    NSD = 2e+020 
    NGATE = 5e+020 
    GAMMA1 =      0 
    GAMMA2 =      0 
    VBX =      0 
    VBM =     -3 
    XT = 1.55e-007 
    K1 =    0.5 
    KT1 =  -0.34 
    KT1L =      0 
    KT2 = -0.052 
    K2 =      0 
    K3 =      0 
    K3B =      0 
    LPE0 =      0 
    LPEB =      0 
    DVTP0 =      0 
    DVTP1 =      0 
    W0 = 2.5e-006 
    DVT0 =      1 
    DVT1 =   0.95 
    DVT2 =      0 
    DVT0W =      0 
    DVT1W =      0 
    DVT2W =      0 
    DROUT =   0.45 
    DSUB =   0.36 
    VTH0 = -0.4117 
    EU =      1 
    UA = 8e-010 
    UA1 = -1e-009 
    UB = 2.5e-018 
    UB1 = 2e-018 
    UC =      0 
    UC1 =      0 
    U0 = 0.01134 
    UTE =   -1.5 
    VOFF = -0.155 
    VOFFL =      0 
    MINV =      0 
    FPROUT =      0 
    PDITS =   0.15 
    PDITSD =      0 
    PDITSL =      0 
    DELTA =   0.04 
    RDSW =    300 
    RDSWMIN =      0 
    RDWMIN =      0 
    RSWMIN =      0 
    RDW =    150 
    RSW =    150 
    PRWG =      0 
    PRWB =      0 
    PRT =      0 
    ETA0 =  0.035 
    ETAB =      0 
    PCLM =  0.001 
    PDIBLC1 =      0 
    PDIBLC2 = 1e-007 
    PDIBLCB =      0 
    PSCBE1 =      0 
    PSCBE2 = 1e-010 
    PVAG =      0 
    WR =      1 
    DWG =      0 
    DWB =      0 
    XW =      0 
    XWREF =      0 
    XL =      0 
    XLREF =      0 
    B0 = -1e-020 
    B1 =      0 
    ALPHA0 =  0.074 
    ALPHA1 =  0.005 
    AGIDL = 0.0002 
    BGIDL = 2.1e+009 
    CGIDL = 0.0002 
    PHIN =      0 
    EGIDL =    0.8 
    AIGC =   0.69 
    BIGC = 0.0012 
    CIGC = 0.0008 
    AIGSD = 0.0087 
    BIGSD = 0.0012 
    CIGSD = 0.0008 
    AIGBACC =  0.012 
    BIGBACC = 0.0028 
    CIGBACC =  0.002 
    AIGBINV =  0.014 
    BIGBINV =  0.004 
    CIGBINV =  0.004 
    NIGC =      1 
    NIGBINV =      3 
    NIGBACC =      1 
    NTOX =      1 
    EIGBINV =    1.1 
    PIGCD =      1 
    POXEDGE =      1 
    XRCRG1 =     12 
    TNOIA =    1.5 
    TNOIB =    3.5 
    NTNOI =      1 
    XRCRG2 =      5 
    BETA0 =     30 
    IJTHDFWD =   0.01 
    IJTHSFWD =   0.01 
    IJTHDREV =  0.001 
    IJTHSREV =  0.001 
    XJBVD =      1 
    XJBVS =      1 
    BVD =     10 
    BVS =     10 
    VFB =  1.064 
    GBMIN = 1e-010 
    RBDB =     15 
    RBPB =      5 
    RBSB =     15 
    RBPS =     15 
    RBPD =     15 
    CGSL = 1e-014 
    CGDL = 1e-014 
    CKAPPAS =    0.5 
    CKAPPAD =    0.5 
    CF = 1.229e-010 
    CLC = 1e-007 
    CLE =    0.6 
    DWC =      0 
    DLC = 8.5e-009 
    DLCIG = 8.5e-009 
    DWJ =      0 
    VFBCV =     -1 
    ACDE =      1 
    MOIN =     15 
    NOFF =    0.9 
    VOFFCV =   0.02 
    DMCG =      0 
    DMCI =      0 
    DMDG =      0 
    DMCGT =      0 
    XGW =      0 
    XGL =      0 
    RSHG =    0.4 
    NGCON =      1 
    TCJ =  0.001 
    TPB =  0.005 
    TCJSW =  0.001 
    TPBSW =  0.005 
    TCJSWG =  0.001 
    TPBSWG =  0.005 
    SK0 =      0 
    SK1 =      0 
    SK2 =      0 
    SL = 2e-006 
    SW = 2e-006 
    K =      0 
    TNOM =  300.1 
    CGSO = 2.1e-010 
    CGDO = 2.1e-010 
    CGBO = 2.56e-011 
    XPART =      0 
    RSH =      0 
    JSS = 0.0001 
    JSWS = 1e-011 
    JSWGS = 1e-010 
    PBS =      1 
    MJS =    0.5 
    PBSWS =      1 
    MJSWS =   0.33 
    CJS = 0.0005 
    CJSWS = 5e-010 
    NJS =      1 
    PBSWGS =      1 
    MJSWGS =   0.33 
    CJSWGS = 3e-010 
    XTIS =      3 
    JSD = 0.0001 
    JSWD = 1e-011 
    JSWGD = 1e-010 
    PBD =      1 
    MJD =    0.5 
    PBSWD =      1 
    MJSWD =   0.33 
    CJD = 0.0005 
    CJSWD = 5e-010 
    NJD =      1 
    PBSWGD =      1 
    MJSWGD =   0.33 
    CJSWGD = 5e-010 
    XTID =      3 
    LMLT =      1 
    WMLT =      1 
    LINT = 8.5e-009 
    LL =      0 
    LLC =      0 
    LLN =      1 
    LW =      0 
    LWC =      0 
    LWN =      1 
    LWL =      0 
    LWLC =      0 
    LMIN =      0 
    LMAX =      1 
    WINT =      0 
    WL =      0 
    WLC =      0 
    WLN =      1 
    WW =      0 
    WWC =      0 
    WWN =      1 
    WWL =      0 
    WWLC =      0 
    WMIN =      0 
    WMAX =      1 
    NOIA = 6.188e+040 
    NOIB = 1.5e+025 
    NOIC = 8.75e+009 
    EM = 4.1e+007 
    EF =      1 
    AF =      1 
    KF =      0 
    TRS =      0 
    TRD =      0 
  **info** (full adder.sp:23) DC voltage reset to initial transient source value              in source        0:va                  new dc=  0.0000D+00
 **warning** (nmos:mn1) Warning:  Acde = 0.264278 may be too small in BSIM4 model with w=6.4e-008 l=3.2e-008.
  
      
 **info** set option symb=1 internally to help for convergence.
 *****************************************************************
 ******  option summary
 ******
 runlvl  = 3         bypass  = 2         
 **info** dc convergence successful at Newton-Raphson method 
1****** HSPICE -- J-2014.09-SP2-2 64-BIT (Apr 17 2015) win64 ******             
 ******  
 

 ****** operating point information tnom=  25.000 temp=  25.000 ******
 ****** operating point status is all       simulation time is     0.     
    node    =voltage      node    =voltage      node    =voltage

 +0:1       =   1.0000  0:2       =   0.      0:3       =   0.     
 +0:4       =   0.      0:5       =  37.2589m 0:6       =   5.6540u
 +0:7       = 807.6670m 0:8       = 551.8699m 0:9       =  92.6489m


 **** voltage sources

 subckt                                              
 element  0:va       0:vb       0:vc       0:vdd     
  volts      0.         0.         0.         1.0000 
  current   21.1854u   17.4661n    5.0453u  -36.5062u
  power      0.         0.         0.        36.5062u

     total voltage source power dissipation=   36.5062u       watts




 **** mosfets


 subckt                                                                    
 element  0:mp1      0:mp2      0:mp3      0:mp4      0:mp5      0:mp6     
 model    0:pmos     0:pmos     0:pmos     0:pmos     0:pmos     0:pmos    
 region       Linear     Linear     Cutoff     Cutoff     Cutoff   Saturati
  id       -26.2528u  -26.2311u  685.7572p  -14.1376n  916.9606p  -10.2532u
  ibs     -2.883e-23 -1.301e-24   19.8550a -6.025e-26  6.555e-26 -9.852e-25
  ibd      202.3274f  265.7966f  -21.1728u   64.2320f  -69.8996f  917.3511f
  vgs       -1.0000  -807.6670m  807.6670m  -92.6489m   92.6489m -448.1301m
  vds     -192.3330m -255.7971m  551.8699m  -55.3900m   37.2589m -907.3511m
  vbs        0.         0.         0.         0.         0.         0.     
  vth     -328.3503m -322.2840m -201.6666m -341.4400m -335.1980m -260.0050m
  vdsat   -457.6351m -344.2750m  -44.0978m  -46.4036m  -45.6144m -150.2423m
  vod     -671.6497m -485.3829m    1.0093   248.7911m  427.8468m -188.1251m
  beta     666.7251u  787.6205u    1.1854m  881.9874u  891.6630u    1.1393m
  gam eff  500.0000m  500.0000m  500.0000m  500.0000m  500.0000m  500.0000m
  gm        18.4335u   43.2431u   12.3071n  245.0916n   16.5871n   78.1562u
  gds      111.6380u   63.9231u    1.7246n  146.2762n   16.9725n    7.9963u
  gmb        7.9994u   13.9567u    1.5248n   56.3423n    3.3983n   21.7829u
  cdtot     77.8333a   71.3816a   82.9659a   74.0849a   75.4196a   65.3062a
  cgtot    106.5759a  104.2604a   77.9162a   71.0823a   72.0856a   96.7643a
  cstot    126.3885a  126.6323a  101.8151a  101.8706a  101.8161a  122.2356a
  cbtot    123.8701a  122.9515a  132.0083a  127.0941a  128.5570a  118.2599a
  cgs       76.0915a   74.9100a   29.9596a   30.0290a   29.9597a   64.9404a
  cgd       28.6830a   26.9786a   40.8092a   29.9539a   30.8823a   27.3813a



 subckt                                                                    
 element  0:mp7      0:mp8      0:mn1      0:mn2      0:mn3      0:mn4     
 model    0:pmos     0:pmos     0:nmos     0:nmos     0:nmos     0:nmos    
 region       Cutoff     Cutoff     Cutoff     Cutoff     Cutoff     Cutoff
  id        18.5335a   85.7614f   17.6358n   10.8566n   10.8566n  -36.9388n
  ibs        0.         0.       7.669e-25  5.269e-25  5.269e-25   -4.6808a
  ibd       -7.8549a   -7.8549a -817.6670f -561.8699f -561.8699f    4.9919u
  vgs      551.8699m   92.6489m    0.         0.         0.      -551.8699m
  vds        5.6540u    5.6540u  807.6670m  551.8699m  551.8699m -514.6110m
  vbs        0.         0.         0.         0.         0.         0.     
  vth     -346.7327m -346.7327m  302.2025m  323.2376m  323.2376m  210.6019m
  vdsat    -45.6692m  -45.6954m   45.0628m   45.1668m   45.1668m   44.5223m
  vod      898.6026m  439.3816m -302.2025m -323.2376m -323.2376m -762.4718m
  beta     869.1824u  869.3820u    4.3697m    4.2213m    4.2213m    5.0517m
  gam eff  500.0000m  500.0000m  500.0000m  500.0000m  500.0000m  500.0000m
  gm       341.5433a    1.5616p  282.8699n  179.4059n  179.4059n  643.6648n
  gds        3.2778p   15.1677n   32.5673n   21.1593n   21.1593n   67.9616n
  gmb       51.9823a  325.4002f   73.4427n   46.3027n   46.3027n  121.7920n
  cdtot     74.8698a   74.8706a   49.3876a   51.3968a   51.3968a   67.7855a
  cgtot     77.0479a   72.0938a   62.9898a   63.6286a   63.6286a   64.8946a
  cstot    101.8157a  101.8174a   82.5020a   82.4864a   82.4864a   74.8353a
  cbtot    133.8938a  128.9385a   85.9780a   87.3279a   87.3279a   92.9907a
  cgs       29.9597a   29.9604a   31.3480a   31.3228a   31.3228a   23.7337a
  cgd       29.9605a   29.9614a   23.0777a   23.7380a   23.7380a   36.5862a



 subckt                                              
 element  0:mn5      0:mn6      0:mn7      0:mn8     
 model    0:nmos     0:nmos     0:nmos     0:nmos    
 region       Linear     Linear     Cutoff     Linear
  id         5.0427u   10.2396u    3.1622p  858.8090p
  ibs      4.261e-26  9.966e-26    0.         0.     
  ibd      -44.9137f -102.3773f   -7.8544a   -7.8544a
  vgs      551.8699m  551.8699m   92.6489m  551.8699m
  vds       37.2589m   92.6489m    5.6540u    5.6540u
  vbs        0.         0.         0.         0.     
  vth      365.5558m  361.0009m  368.6193m  368.6193m
  vdsat    126.6994m  128.7873m   45.5663m  125.3035m
  vod      186.3140m  190.8689m -275.9704m  183.2506m
  beta       3.6003m    3.6188m    3.9135m    3.5878m
  gam eff  500.0000m  500.0000m  500.0000m  500.0000m
  gm        23.5625u   62.2322u   54.3159p    3.3116n
  gds      118.4946u   70.2401u  559.2584n  151.8927u
  gmb        8.4775u   21.7696u   14.9841p    1.2216n
  cdtot     77.8796a   68.8259a   65.4498a   98.4753a
  cgtot    103.2935a  102.4630a   75.0556a  104.5701a
  cstot    101.8822a  104.3127a   84.5741a   93.0241a
  cbtot     90.4913a   89.2272a   91.2486a   92.0229a
  cgs       64.1219a   66.1290a   33.3822a   58.1123a
  cgd       38.3998a   35.3513a   33.4742a   46.0379a



 ******  
 

 ****** transient analysis tnom=  25.000 temp=  25.000 ******
x

        time    voltage      voltage    
                     5            6     
    0.           37.2589m      5.6540u  
    1.00000n    490.9133m    498.2465m  
    2.00000n    733.2827m      1.0001   
    3.00000n    732.8649m    999.9735m  
    4.00000n    732.8649m    999.9735m  
    5.00000n    732.8432m    999.9669m  
    6.00000n    732.8469m    999.9680m  
    7.00000n    732.8556m    999.9707m  
    8.00000n    732.8643m    999.9733m  
    9.00000n    732.8730m    999.9759m  
   10.00000n    732.8802m    999.9781m  
   11.00000n    732.8768m    999.9771m  
   12.00000n    732.8733m    999.9760m  
   13.00000n    732.8699m    999.9750m  
   14.00000n    732.8665m    999.9739m  
   15.00000n    732.8630m    999.9729m  
   16.00000n    732.8596m    999.9719m  
   17.00000n    732.8562m    999.9708m  
   18.00000n    732.8527m    999.9698m  
   19.00000n    732.8493m    999.9687m  
   20.00000n    732.8459m    999.9677m  
   21.00000n    732.8424m    999.9667m  
   22.00000n    732.8402m    999.9660m  
   23.00000n    732.8418m    999.9665m  
   24.00000n    732.8435m    999.9670m  
   25.00000n    732.8451m    999.9675m  
   26.00000n    732.8468m    999.9680m  
   27.00000n    732.8485m    999.9685m  
   28.00000n    732.8501m    999.9690m  
   29.00000n    732.8518m    999.9695m  
   30.00000n    732.8534m    999.9700m  
   31.00000n    732.8551m    999.9705m  
   32.00000n    732.8567m    999.9710m  
   33.00000n    732.8584m    999.9715m  
   34.00000n    732.8600m    999.9720m  
   35.00000n    732.8617m    999.9725m  
   36.00000n    732.8633m    999.9730m  
   37.00000n    732.8650m    999.9735m  
   38.00000n    732.8666m    999.9740m  
   39.00000n    732.8683m    999.9745m  
   40.00000n    732.8699m    999.9750m  
   41.00000n    732.8716m    999.9755m  
   42.00000n    732.8732m    999.9760m  
   43.00000n    732.8749m    999.9765m  
   44.00000n    732.8765m    999.9770m  
   45.00000n    732.8782m    999.9775m  
   46.00000n    732.8798m    999.9780m  
   47.00000n    732.8769m    999.9771m  
   48.00000n    732.8696m    999.9748m  
   49.00000n    732.8622m    999.9726m  
   50.00000n    732.8548m    999.9704m  
   51.00000n    732.8475m    999.9681m  
   52.00000n    732.8401m    999.9659m  
   53.00000n    712.3667m    525.6601m  
   54.00000n    470.8433m    552.2851m  
   55.00000n    473.0910m    552.0628m  
   56.00000n    473.0840m    552.0613m  
   57.00000n    473.0918m    552.0628m  
   58.00000n    473.0976m    552.0640m  
   59.00000n    473.0947m    552.0634m  
   60.00000n    473.0917m    552.0628m  
   61.00000n    473.0888m    552.0623m  
   62.00000n    473.0858m    552.0617m  
   63.00000n    473.0829m    552.0612m  
   64.00000n    473.0799m    552.0606m  
   65.00000n    473.0821m    552.0610m  
   66.00000n    473.0844m    552.0614m  
   67.00000n    473.0867m    552.0619m  
   68.00000n    473.0890m    552.0623m  
   69.00000n    473.0913m    552.0627m  
   70.00000n    473.0936m    552.0632m  
   71.00000n    473.0958m    552.0636m  
   72.00000n    473.0981m    552.0640m  
   73.00000n    485.5175m    539.5247m  
   74.00000n    833.0743m    458.5509m  
   75.00000n    842.4514m    458.8177m  
   76.00000n    842.4473m    458.8172m  
   77.00000n    842.4942m    458.8230m  
   78.00000n    842.4952m    458.8231m  
   79.00000n    842.4769m    458.8208m  
   80.00000n    842.4586m    458.8186m  
   81.00000n    842.4403m    458.8163m  
   82.00000n    842.4220m    458.8140m  
   83.00000n    842.4193m    458.8137m  
   84.00000n    842.4260m    458.8145m  
   85.00000n    842.4327m    458.8153m  
   86.00000n    842.4394m    458.8162m  
   87.00000n    842.4461m    458.8170m  
   88.00000n    842.4528m    458.8178m  
   89.00000n    842.4596m    458.8187m  
   90.00000n    842.4663m    458.8195m  
   91.00000n    842.4730m    458.8203m  
   92.00000n    842.4797m    458.8212m  
   93.00000n    842.4864m    458.8220m  
   94.00000n    842.4931m    458.8228m  
   95.00000n    842.4999m    458.8236m  
   96.00000n    842.5066m    458.8245m  
   97.00000n    842.4899m    458.8224m  
   98.00000n    842.4646m    458.8194m  
   99.00000n    842.4394m    458.8163m  
  100.00000n    842.4141m    458.8132m  
  101.00000n    748.5045m    567.9123m  
  102.00000n    732.6112m    998.7307m  
  103.00000n    732.8513m    999.9602m  
  104.00000n    732.8611m    999.9732m  
  105.00000n    732.8758m    999.9925m  
  106.00000n    732.8666m    999.9804m  
  107.00000n    732.8574m    999.9682m  
  108.00000n    732.8482m    999.9561m  
  109.00000n    732.8442m    999.9508m  
  110.00000n    732.8479m    999.9558m  
  111.00000n    732.8517m    999.9608m  
  112.00000n    732.8555m    999.9658m  
  113.00000n    732.8593m    999.9708m  
  114.00000n    732.8630m    999.9757m  
  115.00000n    732.8668m    999.9807m  
  116.00000n    732.8706m    999.9857m  
  117.00000n    732.8743m    999.9907m  
  118.00000n    732.8776m    999.9951m  
  119.00000n    732.8759m    999.9927m  
  120.00000n    732.8741m    999.9904m  
  121.00000n    732.8723m    999.9881m  
  122.00000n    732.8706m    999.9857m  
  123.00000n    732.8688m    999.9834m  
  124.00000n    732.8671m    999.9810m  
  125.00000n    732.8653m    999.9787m  
  126.00000n    732.8635m    999.9764m  
  127.00000n    732.8618m    999.9740m  
  128.00000n    732.8600m    999.9717m  
  129.00000n    732.8582m    999.9694m  
  130.00000n    732.8565m    999.9670m  
  131.00000n    732.8547m    999.9647m  
  132.00000n    732.8530m    999.9623m  
  133.00000n    732.8512m    999.9600m  
  134.00000n    732.8494m    999.9577m  
  135.00000n    732.8477m    999.9553m  
  136.00000n    732.8459m    999.9530m  
  137.00000n    732.8441m    999.9507m  
  138.00000n    732.8432m    999.9494m  
  139.00000n    732.8457m    999.9527m  
  140.00000n    732.8482m    999.9559m  
  141.00000n    732.8507m    999.9592m  
  142.00000n    732.8531m    999.9625m  
  143.00000n    732.8556m    999.9657m  
  144.00000n    732.8581m    999.9690m  
  145.00000n    732.8606m    999.9723m  
  146.00000n    732.8631m    999.9755m  
  147.00000n    732.8655m    999.9788m  
  148.00000n    732.8680m    999.9821m  
  149.00000n    732.8705m    999.9853m  
  150.00000n    732.8730m    999.9886m  
  151.00000n    732.8755m    999.9919m  
  152.00000n    732.8780m    999.9951m  
  153.00000n    713.7593m    527.9885m  
  154.00000n    472.6010m    552.2807m  
  155.00000n    473.0822m    552.0631m  
  156.00000n    473.0789m    552.0624m  
  157.00000n    473.0800m    552.0626m  
  158.00000n    473.0810m    552.0628m  
  159.00000n    473.0821m    552.0630m  
  160.00000n    473.0830m    552.0632m  
  161.00000n    473.0826m    552.0631m  
  162.00000n    473.0823m    552.0630m  
  163.00000n    473.0819m    552.0630m  
  164.00000n    473.0816m    552.0629m  
  165.00000n    473.0813m    552.0628m  
  166.00000n    473.0809m    552.0628m  
  167.00000n    473.0806m    552.0627m  
  168.00000n    473.0802m    552.0626m  
  169.00000n    473.0799m    552.0626m  
  170.00000n    473.0795m    552.0625m  
  171.00000n    473.0792m    552.0624m  
  172.00000n    473.0788m    552.0624m  
  173.00000n    485.5822m    539.4352m  
  174.00000n    838.3938m    458.7254m  
  175.00000n    842.4664m    458.8191m  
  176.00000n    842.4457m    458.8185m  
  177.00000n    842.4803m    458.8195m  
  178.00000n    842.4901m    458.8198m  
  179.00000n    842.4765m    458.8194m  
  180.00000n    842.4629m    458.8190m  
  181.00000n    842.4493m    458.8186m  
  182.00000n    842.4358m    458.8182m  
  183.00000n    842.4262m    458.8179m  
  184.00000n    842.4318m    458.8181m  
  185.00000n    842.4373m    458.8182m  
  186.00000n    842.4429m    458.8184m  
  187.00000n    842.4485m    458.8186m  
  188.00000n    842.4541m    458.8187m  
  189.00000n    842.4596m    458.8189m  
  190.00000n    842.4652m    458.8191m  
  191.00000n    842.4708m    458.8192m  
  192.00000n    842.4764m    458.8194m  
  193.00000n    842.4820m    458.8196m  
  194.00000n    842.4875m    458.8198m  
  195.00000n    842.4931m    458.8199m  
  196.00000n    842.4915m    458.8199m  
  197.00000n    842.4750m    458.8194m  
  198.00000n    842.4584m    458.8189m  
  199.00000n    842.4418m    458.8184m  
  200.00000n    842.4252m    458.8178m  
  201.00000n    739.0280m    556.7258m  
  202.00000n    733.0386m    999.0537m  
  203.00000n    732.8627m    999.9672m  
  204.00000n    732.8626m    999.9674m  
  205.00000n    732.8570m    999.9783m  
  206.00000n    732.8542m    999.9837m  
  207.00000n    732.8561m    999.9802m  
  208.00000n    732.8579m    999.9766m  
  209.00000n    732.8597m    999.9730m  
  210.00000n    732.8615m    999.9695m  
  211.00000n    732.8633m    999.9659m  
  212.00000n    732.8652m    999.9623m  
  213.00000n    732.8667m    999.9593m  
  214.00000n    732.8661m    999.9605m  
  215.00000n    732.8654m    999.9618m  
  216.00000n    732.8647m    999.9631m  
  217.00000n    732.8641m    999.9644m  
  218.00000n    732.8634m    999.9657m  
  219.00000n    732.8628m    999.9670m  
  220.00000n    732.8621m    999.9683m  
  221.00000n    732.8615m    999.9696m  
  222.00000n    732.8608m    999.9709m  
  223.00000n    732.8601m    999.9722m  
  224.00000n    732.8595m    999.9735m  
  225.00000n    732.8588m    999.9748m  
  226.00000n    732.8582m    999.9760m  
  227.00000n    732.8575m    999.9773m  
  228.00000n    732.8569m    999.9786m  
  229.00000n    732.8562m    999.9799m  
  230.00000n    732.8555m    999.9812m  
  231.00000n    732.8549m    999.9825m  
  232.00000n    732.8542m    999.9838m  
  233.00000n    732.8537m    999.9849m  
  234.00000n    732.8544m    999.9835m  
  235.00000n    732.8551m    999.9822m  
  236.00000n    732.8557m    999.9808m  
  237.00000n    732.8564m    999.9794m  
  238.00000n    732.8571m    999.9781m  
  239.00000n    732.8578m    999.9767m  
  240.00000n    732.8585m    999.9754m  
  241.00000n    732.8592m    999.9740m  
  242.00000n    732.8599m    999.9727m  
  243.00000n    732.8606m    999.9713m  
  244.00000n    732.8613m    999.9700m  
  245.00000n    732.8619m    999.9686m  
  246.00000n    732.8626m    999.9673m  
  247.00000n    732.8633m    999.9659m  
  248.00000n    732.8640m    999.9645m  
  249.00000n    732.8647m    999.9632m  
  250.00000n    732.8654m    999.9618m  
  251.00000n    732.8661m    999.9605m  
  252.00000n    732.8668m    999.9591m  
  253.00000n    486.5808m    500.0946m  
  254.00000n    516.0723m   -205.7086u  
  255.00000n    515.8926m      7.2553u  
  256.00000n    515.8915m      6.9192u  
  257.00000n    515.8916m      6.9586u  
  258.00000n    515.8919m      7.0668u  
  259.00000n    515.8922m      7.1750u  
  260.00000n    515.8925m      7.2832u  
  261.00000n    515.8925m      7.2976u  
  262.00000n    515.8924m      7.2583u  
  263.00000n    515.8923m      7.2190u  
  264.00000n    515.8922m      7.1797u  
  265.00000n    515.8921m      7.1404u  
  266.00000n    515.8920m      7.1011u  
  267.00000n    515.8919m      7.0618u  
  268.00000n    515.8918m      7.0225u  
  269.00000n    515.8917m      6.9832u  
  270.00000n    515.8916m      6.9439u  
  271.00000n    515.8915m      6.9046u  
  272.00000n    515.8914m      6.8653u  
  273.00000n    545.2183m    220.1028u  
  274.00000n     34.1268m   -130.0750u  
  275.00000n     37.2532m      5.7586u  
  276.00000n     37.2601m      5.3154u  
  277.00000n     37.2708m      4.3775u  
  278.00000n     37.2600m      5.2500u  
  279.00000n     37.2492m      6.1225u  
  280.00000n     37.2426m      6.6553u  
  281.00000n     37.2476m      6.2630u  
  282.00000n     37.2526m      5.8707u  
  283.00000n     37.2576m      5.4784u  
  284.00000n     37.2625m      5.0861u  
  285.00000n     37.2675m      4.6938u  
  286.00000n     37.2725m      4.3016u  
  287.00000n     37.2732m      4.2417u  
  288.00000n     37.2708m      4.4328u  
  289.00000n     37.2683m      4.6239u  
  290.00000n     37.2659m      4.8150u  
  291.00000n     37.2634m      5.0061u  
  292.00000n     37.2609m      5.1973u  
  293.00000n     37.2585m      5.3884u  
  294.00000n     37.2560m      5.5795u  
  295.00000n     37.2536m      5.7706u  
  296.00000n     37.2511m      5.9617u  
  297.00000n     37.2486m      6.1529u  
  298.00000n     37.2462m      6.3440u  
  299.00000n     37.2437m      6.5351u  
  300.00000n     37.2412m      6.7262u  
  301.00000n     50.1102m    432.1019m  
  302.00000n    116.3234m    571.5253m  
  303.00000n    116.0131m    571.4981m  
  304.00000n    116.0166m    571.4981m  
  305.00000n    116.0123m    571.4981m  
  306.00000n    116.0080m    571.4980m  
  307.00000n    116.0071m    571.4980m  
  308.00000n    116.0085m    571.4980m  
  309.00000n    116.0098m    571.4981m  
  310.00000n    116.0111m    571.4981m  
  311.00000n    116.0125m    571.4981m  
  312.00000n    116.0138m    571.4981m  
  313.00000n    116.0151m    571.4981m  
  314.00000n    116.0165m    571.4981m  
  315.00000n    116.0178m    571.4981m  
  316.00000n    116.0189m    571.4981m  
  317.00000n    116.0184m    571.4981m  
  318.00000n    116.0179m    571.4981m  
  319.00000n    116.0174m    571.4981m  
  320.00000n    116.0169m    571.4981m  
  321.00000n    116.0164m    571.4981m  
  322.00000n    116.0159m    571.4981m  
  323.00000n    116.0153m    571.4981m  
  324.00000n    116.0148m    571.4981m  
  325.00000n    116.0143m    571.4981m  
  326.00000n    116.0138m    571.4981m  
  327.00000n    116.0133m    571.4981m  
  328.00000n    116.0128m    571.4981m  
  329.00000n    116.0123m    571.4981m  
  330.00000n    116.0118m    571.4981m  
  331.00000n    116.0113m    571.4981m  
  332.00000n    116.0108m    571.4981m  
  333.00000n    116.0103m    571.4981m  
  334.00000n    116.0098m    571.4981m  
  335.00000n    116.0093m    571.4981m  
  336.00000n    116.0088m    571.4981m  
  337.00000n    116.0083m    571.4980m  
  338.00000n    116.0078m    571.4980m  
  339.00000n    116.0073m    571.4980m  
  340.00000n    116.0068m    571.4980m  
  341.00000n    116.0065m    571.4980m  
  342.00000n    116.0076m    571.4980m  
  343.00000n    116.0088m    571.4981m  
  344.00000n    116.0099m    571.4981m  
  345.00000n    116.0110m    571.4981m  
  346.00000n    116.0122m    571.4981m  
  347.00000n    116.0133m    571.4981m  
  348.00000n    116.0144m    571.4981m  
  349.00000n    116.0155m    571.4981m  
  350.00000n    116.0167m    571.4981m  
  351.00000n    116.0178m    571.4981m  
  352.00000n    116.0189m    571.4981m  
  353.00000n     95.2726m    477.6372m  
  354.00000n    515.4728m    -75.2600u  
  355.00000n    515.8862m      7.4459u  
  356.00000n    515.8947m      9.9890u  
  357.00000n    515.8993m     11.3604u  
  358.00000n    515.8966m     10.5753u  
  359.00000n    515.8940m      9.7903u  
  360.00000n    515.8914m      9.0052u  
  361.00000n    515.8888m      8.2202u  
  362.00000n    515.8862m      7.4351u  
  363.00000n    515.8861m      7.4052u  
  364.00000n    515.8876m      7.8733u  
  365.00000n    515.8892m      8.3414u  
  366.00000n    515.8907m      8.8095u  
  367.00000n    515.8923m      9.2776u  
  368.00000n    515.8939m      9.7457u  
  369.00000n    515.8954m     10.2137u  
  370.00000n    515.8970m     10.6818u  
  371.00000n    515.8985m     11.1499u  
  372.00000n    515.9001m     11.6180u  
  373.00000n    543.9011m    228.3143u  
  374.00000n     34.4456m   -117.3535u  
  375.00000n     37.2816m      8.2780u  
  376.00000n     37.2380m      1.9080u  
  377.00000n     37.2418m      2.4994u  
  378.00000n     37.2724m      6.9707u  
  379.00000n     37.2907m      9.6397u  
  380.00000n     37.2773m      7.6769u  
  381.00000n     37.2640m      5.7140u  
  382.00000n     37.2506m      3.7511u  
  383.00000n     37.2372m      1.7883u  
  384.00000n     37.2238m      0.       
  385.00000n     37.2245m      0.       
  386.00000n     37.2309m    870.3137n  
  387.00000n     37.2374m      1.8195u  
  388.00000n     37.2438m      2.7686u  
  389.00000n     37.2503m      3.7178u  
  390.00000n     37.2567m      4.6670u  
  391.00000n     37.2632m      5.6161u  
  392.00000n     37.2696m      6.5653u  
  393.00000n     37.2761m      7.5145u  
  394.00000n     37.2825m      8.4636u  
  395.00000n     37.2889m      9.4128u  
  396.00000n     37.2915m      9.7875u  
  397.00000n     37.2738m      7.1459u  
  398.00000n     37.2561m      4.5044u  
  399.00000n     37.2384m      1.8629u  
  400.00000n     37.2206m   -778.6389n  
  401.00000n     36.8833m    280.1792m  
  402.00000n    116.2089m    571.5472m  
  403.00000n    116.0094m    571.4980m  
  404.00000n    116.0169m    571.4981m  
  405.00000n    116.0171m    571.4981m  
  406.00000n    116.0148m    571.4981m  
  407.00000n    116.0125m    571.4981m  
  408.00000n    116.0102m    571.4980m  
  409.00000n    116.0079m    571.4980m  
  410.00000n    116.0086m    571.4980m  
  411.00000n    116.0094m    571.4980m  
  412.00000n    116.0101m    571.4980m  
  413.00000n    116.0108m    571.4981m  
  414.00000n    116.0115m    571.4981m  
  415.00000n    116.0122m    571.4981m  
  416.00000n    116.0130m    571.4981m  
  417.00000n    116.0137m    571.4981m  
  418.00000n    116.0144m    571.4981m  
  419.00000n    116.0151m    571.4981m  
  420.00000n    116.0158m    571.4981m  
  421.00000n    116.0165m    571.4981m  
  422.00000n    116.0173m    571.4981m  
  423.00000n    116.0180m    571.4981m  
  424.00000n    116.0187m    571.4981m  
  425.00000n    116.0183m    571.4981m  
  426.00000n    116.0179m    571.4981m  
  427.00000n    116.0175m    571.4981m  
  428.00000n    116.0170m    571.4981m  
  429.00000n    116.0166m    571.4981m  
  430.00000n    116.0162m    571.4981m  
  431.00000n    116.0157m    571.4981m  
  432.00000n    116.0153m    571.4981m  
  433.00000n    116.0149m    571.4981m  
  434.00000n    116.0144m    571.4981m  
  435.00000n    116.0140m    571.4981m  
  436.00000n    116.0136m    571.4981m  
  437.00000n    116.0131m    571.4981m  
  438.00000n    116.0127m    571.4981m  
  439.00000n    116.0123m    571.4981m  
  440.00000n    116.0118m    571.4981m  
  441.00000n    116.0114m    571.4981m  
  442.00000n    116.0110m    571.4981m  
  443.00000n    116.0105m    571.4981m  
  444.00000n    116.0101m    571.4980m  
  445.00000n    116.0097m    571.4980m  
  446.00000n    116.0093m    571.4980m  
  447.00000n    116.0088m    571.4980m  
  448.00000n    116.0084m    571.4980m  
  449.00000n    116.0080m    571.4980m  
  450.00000n    116.0114m    571.4981m  
  451.00000n    116.0150m    571.4981m  
  452.00000n    116.0187m    571.4981m  
  453.00000n     86.2495m    478.2570m  
  454.00000n    516.0674m     -1.0561m  
  455.00000n    515.8933m      7.9814u  
  456.00000n    515.8821m      6.0219u  
  457.00000n    515.8860m      6.7284u  
  458.00000n    515.8899m      7.4348u  
  459.00000n    515.8938m      8.1413u  
  460.00000n    515.8935m      8.0728u  
  461.00000n    515.8921m      7.8139u  
  462.00000n    515.8906m      7.5550u  
  463.00000n    515.8892m      7.2961u  
  464.00000n    515.8878m      7.0372u  
  465.00000n    515.8864m      6.7783u  
  466.00000n    515.8850m      6.5194u  
  467.00000n    515.8835m      6.2604u  
  468.00000n    515.8821m      6.0015u  
  469.00000n    515.8851m      6.5535u  
  470.00000n    515.8883m      7.1315u  
  471.00000n    515.8914m      7.7096u  
  472.00000n    515.8945m      8.2876u  
  473.00000n    555.7238m    327.6907u  
  474.00000n     33.5015m   -221.9126u  
  475.00000n     37.2609m      5.2659u  
  476.00000n     37.2528m      5.9913u  
  477.00000n     37.2747m      4.6141u  
  478.00000n     37.2656m      5.1442u  
  479.00000n     37.2553m      5.7508u  
  480.00000n     37.2450m      6.3574u  
  481.00000n     37.2412m      6.5823u  
  482.00000n     37.2460m      6.3120u  
  483.00000n     37.2507m      6.0418u  
  484.00000n     37.2554m      5.7715u  
  485.00000n     37.2601m      5.5012u  
  486.00000n     37.2648m      5.2309u  
  487.00000n     37.2696m      4.9607u  
  488.00000n     37.2743m      4.6904u  
  489.00000n     37.2730m      4.7596u  
  490.00000n     37.2700m      4.9330u  
  491.00000n     37.2669m      5.1064u  
  492.00000n     37.2638m      5.2798u  
  493.00000n     37.2607m      5.4532u  
  494.00000n     37.2577m      5.6266u  
  495.00000n     37.2546m      5.8000u  
  496.00000n     37.2515m      5.9733u  
  497.00000n     37.2485m      6.1467u  
  498.00000n     37.2454m      6.3201u  
  499.00000n     37.2423m      6.4935u  
  500.00000n     37.2392m      6.6669u  
y
 avg_power= -13.6092u  from=   1.0000n     to= 500.0000n
 tdlay= -19.6991n  targ=  53.3009n   trig=  73.0000n

          ***** job concluded
1****** HSPICE -- J-2014.09-SP2-2 64-BIT (Apr 17 2015) win64 ******             
 ******  
 

 ****** job statistics summary tnom=  25.000 temp=  25.000 ******

  ******  HSPICE Threads Information  ******

  Command Line Threads Count :     1
  Available CPU Count        :     8
  Actual Threads Count       :     1


  ******  Circuit Statistics  ******
  # nodes       =      74 # elements   =      20
  # resistors   =       0 # capacitors =       0 # inductors   =       0
  # mutual_inds =       0 # vccs       =       0 # vcvs        =       0
  # cccs        =       0 # ccvs       =       0 # volt_srcs   =       4
  # curr_srcs   =       0 # diodes     =       0 # bjts        =       0
  # jfets       =       0 # mosfets    =      16 # U elements  =       0
  # T elements  =       0 # W elements =       0 # B elements  =       0
  # S elements  =       0 # P elements =       0 # va device   =       0
  # vector_srcs =       0 # N elements =       0


  ******  Runtime Statistics (seconds)  ******

  analysis           time    # points   tot. iter  conv.iter
  op point           0.00           1           9
  transient          0.06         501        1664         445 rev=        43
  readin             0.02
  errchk             0.00
  setup              0.00
  output             0.00


           peak memory used         43.56 megabytes
           total cpu time            0.09 seconds
           total elapsed time        0.11 seconds
           job started at     22:26:23 03/19/2023
           job ended   at     22:26:23 03/19/2023


  lic: Release hspice token(s) 
 lic: total license checkout elapse time:        0.03(s)
