$DATA1 SOURCE='HSPICE' VERSION='J-2014.09-SP2-2 64-BIT'
.TITLE ' '
 avg_power        tdlay            temper           alter#          
 -1.361e-005      -1.970e-008        25.0000        1               
