 ****** HSPICE -- J-2014.09-SP2-2 64-BIT (Apr 17 2015) win64 ******             
  Copyright (C) 2014 Synopsys, Inc. All Rights Reserved.                        
  Unpublished-rights reserved under US copyright laws.
  This program is protected by law and is subject to the
  terms and conditions of the license agreement from Synopsys.
  Use of this program is your acceptance to be bound by the
  license agreement. HSPICE is the trademark of Synopsys, Inc.
  Input File: tadder.sp                                                         
  Command line options: -i tadder.sp -o tadder.lis
  lic:  
  lic: FLEXlm: v10.9.8 
  lic: USER:   Sneha Sharma         HOSTNAME: DESKTOP-RRQMT9M 
  lic: HOSTID: "14857f08ef6b 00ff8cded52f 14857f08ef67 14857f08ef68 16857f08ef67
 " PID:      14080 
  lic: Using FLEXlm license file: 
  lic: 27000@DESKTOP-RRQMT9M 
  lic: Checkout 1 hspice 
  lic: License/Maintenance for hspice will expire on 30-dec-2030/2019.2019 
  lic: 1(in_use)/99(total) FLOATING license(s) on SERVER 27000@DESKTOP-RRQMT9M 
  lic:   
 Init: read install configuration file: C:\synopsys\Hspice_J-2014.09-SP2-2\meta.cfg
 **warning** unexpected value for post
  **warning** (tadder.sp:49) Syntax error while using .print/.probe, missing output variable. Line ignored.
1****** HSPICE -- J-2014.09-SP2-2 64-BIT (Apr 17 2015) win64 ******             
 ******  
 

 ****** circuit name directory
 circuit number to circuit name directory
   number circuitname                     definition         multiplier
        0 main circuit
  **info** (tadder.sp:40) DC voltage reset to initial transient source value              in source        0:va                  new dc=  0.0000D+00
  
      
  **warning** PIVOT option setting is simplified, pivot = 13 is obsolete,
              automatically switch to pivot = 1.
 *****************************************************************
 ******  option summary
 ******
 runlvl  = 3         bypass  = 2         
  Opening plot unit= 79
 file=tadder.pa0

 no convergence with standard algorithm,  trying damped pseudo-transient

  *** pseudo tran succeeded *** 
1****** HSPICE -- J-2014.09-SP2-2 64-BIT (Apr 17 2015) win64 ******             
 ******  
 

 ****** operating point information tnom=  25.000 temp=  25.000 ******
 ****** operating point status is all       simulation time is   0.000e+00
     node    =voltage       node    =voltage       node    =voltage

 + 0:5       =-5.391e-08  0:6       =-3.489e-08  0:8       = 1.000e-00


 **** voltage sources

 subckt                                                  
 element   0:va        0:vb        0:vc        0:vdd     
  volts     0.000e+00   0.000e+00   0.000e+00   1.000e+00
  current  -9.293e-13  -1.983e-12  -3.902e-13  -3.137e-11
  power     0.000e+00   0.000e+00   0.000e+00   3.137e-11

     total voltage source power dissipation=  3.137e-11       watts


 ******  
 

 ****** transient analysis tnom=  25.000 temp=  25.000 ******
x

        time    voltage      voltage      voltage      voltage    
                     2            3            4            5     
  0.0000e+00    0.000e+00    0.000e+00    0.000e+00    0.000e+00  
  1.0000e-09    5.000e-01    5.000e-01    5.000e-01    4.981e-01  
  2.0000e-09    1.000e+00    1.000e+00    1.000e+00    9.999e-01  
  3.0000e-09    1.000e+00    1.000e+00    1.000e+00    1.000e-00  
  4.0000e-09    1.000e+00    1.000e+00    1.000e+00    1.000e-00  
  5.0000e-09    1.000e+00    1.000e+00    1.000e+00    1.000e-00  
  6.0000e-09    1.000e+00    1.000e+00    1.000e+00    1.000e-00  
  7.0000e-09    1.000e+00    1.000e+00    1.000e+00    1.000e-00  
  8.0000e-09    1.000e+00    1.000e+00    1.000e+00    1.000e-00  
  9.0000e-09    1.000e+00    1.000e+00    1.000e+00    1.000e-00  
  1.0000e-08    1.000e+00    1.000e+00    1.000e+00    1.000e-00  
  1.1000e-08    1.000e+00    1.000e+00    1.000e+00    1.000e-00  
  1.2000e-08    1.000e+00    1.000e+00    1.000e+00    1.000e-00  
  1.3000e-08    1.000e+00    1.000e+00    1.000e+00    1.000e-00  
  1.4000e-08    1.000e+00    1.000e+00    1.000e+00    1.000e-00  
  1.5000e-08    1.000e+00    1.000e+00    1.000e+00    1.000e-00  
  1.6000e-08    1.000e+00    1.000e+00    1.000e+00    1.000e-00  
  1.7000e-08    1.000e+00    1.000e+00    1.000e+00    1.000e-00  
  1.8000e-08    1.000e+00    1.000e+00    1.000e+00    1.000e-00  
  1.9000e-08    1.000e+00    1.000e+00    1.000e+00    1.000e-00  
  2.0000e-08    1.000e+00    1.000e+00    1.000e+00    1.000e-00  
  2.1000e-08    1.000e+00    1.000e+00    1.000e+00    1.000e-00  
  2.2000e-08    1.000e+00    1.000e+00    1.000e+00    1.000e-00  
  2.3000e-08    1.000e+00    1.000e+00    1.000e+00    1.000e-00  
  2.4000e-08    1.000e+00    1.000e+00    1.000e+00    1.000e-00  
  2.5000e-08    1.000e+00    1.000e+00    1.000e+00    1.000e-00  
  2.6000e-08    1.000e+00    1.000e+00    1.000e+00    1.000e-00  
  2.7000e-08    1.000e+00    1.000e+00    1.000e+00    1.000e-00  
  2.8000e-08    1.000e+00    1.000e+00    1.000e+00    1.000e-00  
  2.9000e-08    1.000e+00    1.000e+00    1.000e+00    1.000e-00  
  3.0000e-08    1.000e+00    1.000e+00    1.000e+00    1.000e-00  
  3.1000e-08    1.000e+00    1.000e+00    1.000e+00    1.000e-00  
  3.2000e-08    1.000e+00    1.000e+00    1.000e+00    1.000e-00  
  3.3000e-08    1.000e+00    1.000e+00    1.000e+00    1.000e-00  
  3.4000e-08    1.000e+00    1.000e+00    1.000e+00    1.000e-00  
  3.5000e-08    1.000e+00    1.000e+00    1.000e+00    1.000e-00  
  3.6000e-08    1.000e+00    1.000e+00    1.000e+00    1.000e-00  
  3.7000e-08    1.000e+00    1.000e+00    1.000e+00    1.000e-00  
  3.8000e-08    1.000e+00    1.000e+00    1.000e+00    1.000e-00  
  3.9000e-08    1.000e+00    1.000e+00    1.000e+00    1.000e-00  
  4.0000e-08    1.000e+00    1.000e+00    1.000e+00    1.000e-00  
  4.1000e-08    1.000e+00    1.000e+00    1.000e+00    1.000e-00  
  4.2000e-08    1.000e+00    1.000e+00    1.000e+00    1.000e-00  
  4.3000e-08    1.000e+00    1.000e+00    1.000e+00    1.000e-00  
  4.4000e-08    1.000e+00    1.000e+00    1.000e+00    1.000e-00  
  4.5000e-08    1.000e+00    1.000e+00    1.000e+00    1.000e-00  
  4.6000e-08    1.000e+00    1.000e+00    1.000e+00    1.000e-00  
  4.7000e-08    1.000e+00    1.000e+00    1.000e+00    1.000e-00  
  4.8000e-08    1.000e+00    1.000e+00    1.000e+00    1.000e-00  
  4.9000e-08    1.000e+00    1.000e+00    1.000e+00    1.000e-00  
  5.0000e-08    1.000e+00    1.000e+00    1.000e+00    1.000e-00  
  5.1000e-08    1.000e+00    1.000e+00    1.000e+00    1.000e-00  
  5.2000e-08    1.000e+00    1.000e+00    1.000e+00    1.000e-00  
  5.3000e-08    1.000e+00    5.000e-01    1.000e+00    9.999e-01  
  5.4000e-08    1.000e+00    0.000e+00    1.000e+00   -1.934e-05  
  5.5000e-08    1.000e+00    0.000e+00    1.000e+00    0.000e+00  
  5.6000e-08    1.000e+00    0.000e+00    1.000e+00    0.000e+00  
  5.7000e-08    1.000e+00    0.000e+00    1.000e+00    0.000e+00  
  5.8000e-08    1.000e+00    0.000e+00    1.000e+00    0.000e+00  
  5.9000e-08    1.000e+00    0.000e+00    1.000e+00    0.000e+00  
  6.0000e-08    1.000e+00    0.000e+00    1.000e+00    0.000e+00  
  6.1000e-08    1.000e+00    0.000e+00    1.000e+00    0.000e+00  
  6.2000e-08    1.000e+00    0.000e+00    1.000e+00    0.000e+00  
  6.3000e-08    1.000e+00    0.000e+00    1.000e+00    0.000e+00  
  6.4000e-08    1.000e+00    0.000e+00    1.000e+00    0.000e+00  
  6.5000e-08    1.000e+00    0.000e+00    1.000e+00   -5.026e-07  
  6.6000e-08    1.000e+00    0.000e+00    1.000e+00    0.000e+00  
  6.7000e-08    1.000e+00    0.000e+00    1.000e+00    0.000e+00  
  6.8000e-08    1.000e+00    0.000e+00    1.000e+00    0.000e+00  
  6.9000e-08    1.000e+00    0.000e+00    1.000e+00    0.000e+00  
  7.0000e-08    1.000e+00    0.000e+00    1.000e+00    0.000e+00  
  7.1000e-08    1.000e+00    0.000e+00    1.000e+00    0.000e+00  
  7.2000e-08    1.000e+00    0.000e+00    1.000e+00    0.000e+00  
  7.3000e-08    5.000e-01    0.000e+00    1.000e+00    3.795e-01  
  7.4000e-08    0.000e+00    0.000e+00    1.000e+00    1.000e-00  
  7.5000e-08    0.000e+00    0.000e+00    1.000e+00    1.000e-00  
  7.6000e-08    0.000e+00    0.000e+00    1.000e+00    1.000e-00  
  7.7000e-08    0.000e+00    0.000e+00    1.000e+00    1.000e-00  
  7.8000e-08    0.000e+00    0.000e+00    1.000e+00    1.000e-00  
  7.9000e-08    0.000e+00    0.000e+00    1.000e+00    1.000e-00  
  8.0000e-08    0.000e+00    0.000e+00    1.000e+00    1.000e-00  
  8.1000e-08    0.000e+00    0.000e+00    1.000e+00    1.000e-00  
  8.2000e-08    0.000e+00    0.000e+00    1.000e+00    1.000e-00  
  8.3000e-08    0.000e+00    0.000e+00    1.000e+00    1.000e-00  
  8.4000e-08    0.000e+00    0.000e+00    1.000e+00    1.000e-00  
  8.5000e-08    0.000e+00    0.000e+00    1.000e+00    1.000e-00  
  8.6000e-08    0.000e+00    0.000e+00    1.000e+00    1.000e-00  
  8.7000e-08    0.000e+00    0.000e+00    1.000e+00    1.000e-00  
  8.8000e-08    0.000e+00    0.000e+00    1.000e+00    1.000e-00  
  8.9000e-08    0.000e+00    0.000e+00    1.000e+00    1.000e-00  
  9.0000e-08    0.000e+00    0.000e+00    1.000e+00    1.000e-00  
  9.1000e-08    0.000e+00    0.000e+00    1.000e+00    1.000e-00  
  9.2000e-08    0.000e+00    0.000e+00    1.000e+00    1.000e-00  
  9.3000e-08    0.000e+00    0.000e+00    1.000e+00    1.000e-00  
  9.4000e-08    0.000e+00    0.000e+00    1.000e+00    1.000e-00  
  9.5000e-08    0.000e+00    0.000e+00    1.000e+00    1.000e-00  
  9.6000e-08    0.000e+00    0.000e+00    1.000e+00    1.000e-00  
  9.7000e-08    0.000e+00    0.000e+00    1.000e+00    1.000e-00  
  9.8000e-08    0.000e+00    0.000e+00    1.000e+00    1.000e-00  
  9.9000e-08    0.000e+00    0.000e+00    1.000e+00    1.000e-00  
  1.0000e-07    0.000e+00    0.000e+00    1.000e+00    1.000e-00  
  1.0100e-07    5.000e-01    5.000e-01    1.000e+00    1.000e-00  
  1.0200e-07    1.000e-00    1.000e-00    1.000e+00    1.000e+00  
  1.0300e-07    1.000e+00    1.000e+00    1.000e+00    1.000e-00  
  1.0400e-07    1.000e+00    1.000e+00    1.000e+00    1.000e-00  
  1.0500e-07    1.000e+00    1.000e+00    1.000e+00    1.000e-00  
  1.0600e-07    1.000e+00    1.000e+00    1.000e+00    1.000e-00  
  1.0700e-07    1.000e+00    1.000e+00    1.000e+00    1.000e-00  
  1.0800e-07    1.000e+00    1.000e+00    1.000e+00    1.000e-00  
  1.0900e-07    1.000e+00    1.000e+00    1.000e+00    1.000e-00  
  1.1000e-07    1.000e+00    1.000e+00    1.000e+00    1.000e-00  
  1.1100e-07    1.000e+00    1.000e+00    1.000e+00    1.000e-00  
  1.1200e-07    1.000e+00    1.000e+00    1.000e+00    1.000e-00  
  1.1300e-07    1.000e+00    1.000e+00    1.000e+00    1.000e-00  
  1.1400e-07    1.000e+00    1.000e+00    1.000e+00    1.000e-00  
  1.1500e-07    1.000e+00    1.000e+00    1.000e+00    1.000e-00  
  1.1600e-07    1.000e+00    1.000e+00    1.000e+00    1.000e-00  
  1.1700e-07    1.000e+00    1.000e+00    1.000e+00    1.000e-00  
  1.1800e-07    1.000e+00    1.000e+00    1.000e+00    1.000e-00  
  1.1900e-07    1.000e+00    1.000e+00    1.000e+00    1.000e-00  
  1.2000e-07    1.000e+00    1.000e+00    1.000e+00    1.000e-00  
  1.2100e-07    1.000e+00    1.000e+00    1.000e+00    1.000e-00  
  1.2200e-07    1.000e+00    1.000e+00    1.000e+00    1.000e-00  
  1.2300e-07    1.000e+00    1.000e+00    1.000e+00    1.000e-00  
  1.2400e-07    1.000e+00    1.000e+00    1.000e+00    1.000e-00  
  1.2500e-07    1.000e+00    1.000e+00    1.000e+00    1.000e-00  
  1.2600e-07    1.000e+00    1.000e+00    1.000e+00    1.000e-00  
  1.2700e-07    1.000e+00    1.000e+00    1.000e+00    1.000e-00  
  1.2800e-07    1.000e+00    1.000e+00    1.000e+00    1.000e-00  
  1.2900e-07    1.000e+00    1.000e+00    1.000e+00    1.000e-00  
  1.3000e-07    1.000e+00    1.000e+00    1.000e+00    1.000e-00  
  1.3100e-07    1.000e+00    1.000e+00    1.000e+00    1.000e-00  
  1.3200e-07    1.000e+00    1.000e+00    1.000e+00    1.000e-00  
  1.3300e-07    1.000e+00    1.000e+00    1.000e+00    1.000e-00  
  1.3400e-07    1.000e+00    1.000e+00    1.000e+00    1.000e-00  
  1.3500e-07    1.000e+00    1.000e+00    1.000e+00    1.000e-00  
  1.3600e-07    1.000e+00    1.000e+00    1.000e+00    1.000e-00  
  1.3700e-07    1.000e+00    1.000e+00    1.000e+00    1.000e-00  
  1.3800e-07    1.000e+00    1.000e+00    1.000e+00    1.000e-00  
  1.3900e-07    1.000e+00    1.000e+00    1.000e+00    1.000e-00  
  1.4000e-07    1.000e+00    1.000e+00    1.000e+00    1.000e-00  
  1.4100e-07    1.000e+00    1.000e+00    1.000e+00    1.000e-00  
  1.4200e-07    1.000e+00    1.000e+00    1.000e+00    1.000e-00  
  1.4300e-07    1.000e+00    1.000e+00    1.000e+00    1.000e-00  
  1.4400e-07    1.000e+00    1.000e+00    1.000e+00    1.000e-00  
  1.4500e-07    1.000e+00    1.000e+00    1.000e+00    1.000e-00  
  1.4600e-07    1.000e+00    1.000e+00    1.000e+00    1.000e-00  
  1.4700e-07    1.000e+00    1.000e+00    1.000e+00    1.000e-00  
  1.4800e-07    1.000e+00    1.000e+00    1.000e+00    1.000e-00  
  1.4900e-07    1.000e+00    1.000e+00    1.000e+00    1.000e-00  
  1.5000e-07    1.000e+00    1.000e+00    1.000e+00    1.000e-00  
  1.5100e-07    1.000e+00    1.000e+00    1.000e+00    1.000e-00  
  1.5200e-07    1.000e+00    1.000e+00    1.000e+00    1.000e-00  
  1.5300e-07    1.000e+00    5.000e-01    1.000e+00    9.999e-01  
  1.5400e-07    1.000e+00    0.000e+00    1.000e+00    1.966e-04  
  1.5500e-07    1.000e+00    0.000e+00    1.000e+00    0.000e+00  
  1.5600e-07    1.000e+00    0.000e+00    1.000e+00    6.782e-07  
  1.5700e-07    1.000e+00    0.000e+00    1.000e+00    0.000e+00  
  1.5800e-07    1.000e+00    0.000e+00    1.000e+00   -7.185e-07  
  1.5900e-07    1.000e+00    0.000e+00    1.000e+00   -1.417e-06  
  1.6000e-07    1.000e+00    0.000e+00    1.000e+00   -1.220e-06  
  1.6100e-07    1.000e+00    0.000e+00    1.000e+00   -1.002e-06  
  1.6200e-07    1.000e+00    0.000e+00    1.000e+00   -7.836e-07  
  1.6300e-07    1.000e+00    0.000e+00    1.000e+00   -5.655e-07  
  1.6400e-07    1.000e+00    0.000e+00    1.000e+00    0.000e+00  
  1.6500e-07    1.000e+00    0.000e+00    1.000e+00    0.000e+00  
  1.6600e-07    1.000e+00    0.000e+00    1.000e+00    0.000e+00  
  1.6700e-07    1.000e+00    0.000e+00    1.000e+00    0.000e+00  
  1.6800e-07    1.000e+00    0.000e+00    1.000e+00    5.248e-07  
  1.6900e-07    1.000e+00    0.000e+00    1.000e+00    7.429e-07  
  1.7000e-07    1.000e+00    0.000e+00    1.000e+00    8.456e-07  
  1.7100e-07    1.000e+00    0.000e+00    1.000e+00    0.000e+00  
  1.7200e-07    1.000e+00    0.000e+00    1.000e+00   -1.430e-06  
  1.7300e-07    5.000e-01    0.000e+00    1.000e+00    3.835e-01  
  1.7400e-07    0.000e+00    0.000e+00    1.000e+00    1.000e-00  
  1.7500e-07    0.000e+00    0.000e+00    1.000e+00    1.000e-00  
  1.7600e-07    0.000e+00    0.000e+00    1.000e+00    1.000e-00  
  1.7700e-07    0.000e+00    0.000e+00    1.000e+00    1.000e-00  
  1.7800e-07    0.000e+00    0.000e+00    1.000e+00    1.000e-00  
  1.7900e-07    0.000e+00    0.000e+00    1.000e+00    1.000e-00  
  1.8000e-07    0.000e+00    0.000e+00    1.000e+00    1.000e-00  
  1.8100e-07    0.000e+00    0.000e+00    1.000e+00    1.000e-00  
  1.8200e-07    0.000e+00    0.000e+00    1.000e+00    1.000e-00  
  1.8300e-07    0.000e+00    0.000e+00    1.000e+00    1.000e-00  
  1.8400e-07    0.000e+00    0.000e+00    1.000e+00    1.000e-00  
  1.8500e-07    0.000e+00    0.000e+00    1.000e+00    1.000e-00  
  1.8600e-07    0.000e+00    0.000e+00    1.000e+00    1.000e-00  
  1.8700e-07    0.000e+00    0.000e+00    1.000e+00    1.000e-00  
  1.8800e-07    0.000e+00    0.000e+00    1.000e+00    1.000e-00  
  1.8900e-07    0.000e+00    0.000e+00    1.000e+00    1.000e-00  
  1.9000e-07    0.000e+00    0.000e+00    1.000e+00    1.000e-00  
  1.9100e-07    0.000e+00    0.000e+00    1.000e+00    1.000e-00  
  1.9200e-07    0.000e+00    0.000e+00    1.000e+00    1.000e-00  
  1.9300e-07    0.000e+00    0.000e+00    1.000e+00    1.000e-00  
  1.9400e-07    0.000e+00    0.000e+00    1.000e+00    1.000e-00  
  1.9500e-07    0.000e+00    0.000e+00    1.000e+00    1.000e-00  
  1.9600e-07    0.000e+00    0.000e+00    1.000e+00    1.000e-00  
  1.9700e-07    0.000e+00    0.000e+00    1.000e+00    1.000e-00  
  1.9800e-07    0.000e+00    0.000e+00    1.000e+00    1.000e-00  
  1.9900e-07    0.000e+00    0.000e+00    1.000e+00    1.000e-00  
  2.0000e-07    0.000e+00    0.000e+00    1.000e+00    1.000e-00  
  2.0100e-07    5.000e-01    5.000e-01    1.000e+00    1.000e-00  
  2.0200e-07    1.000e+00    1.000e+00    1.000e+00    1.000e-00  
  2.0300e-07    1.000e+00    1.000e+00    1.000e+00    1.000e-00  
  2.0400e-07    1.000e+00    1.000e+00    1.000e+00    1.000e-00  
  2.0500e-07    1.000e+00    1.000e+00    1.000e+00    1.000e-00  
  2.0600e-07    1.000e+00    1.000e+00    1.000e+00    1.000e-00  
  2.0700e-07    1.000e+00    1.000e+00    1.000e+00    1.000e-00  
  2.0800e-07    1.000e+00    1.000e+00    1.000e+00    1.000e-00  
  2.0900e-07    1.000e+00    1.000e+00    1.000e+00    1.000e-00  
  2.1000e-07    1.000e+00    1.000e+00    1.000e+00    1.000e-00  
  2.1100e-07    1.000e+00    1.000e+00    1.000e+00    1.000e-00  
  2.1200e-07    1.000e+00    1.000e+00    1.000e+00    1.000e-00  
  2.1300e-07    1.000e+00    1.000e+00    1.000e+00    1.000e-00  
  2.1400e-07    1.000e+00    1.000e+00    1.000e+00    1.000e-00  
  2.1500e-07    1.000e+00    1.000e+00    1.000e+00    1.000e-00  
  2.1600e-07    1.000e+00    1.000e+00    1.000e+00    1.000e-00  
  2.1700e-07    1.000e+00    1.000e+00    1.000e+00    1.000e-00  
  2.1800e-07    1.000e+00    1.000e+00    1.000e+00    1.000e-00  
  2.1900e-07    1.000e+00    1.000e+00    1.000e+00    1.000e-00  
  2.2000e-07    1.000e+00    1.000e+00    1.000e+00    1.000e-00  
  2.2100e-07    1.000e+00    1.000e+00    1.000e+00    1.000e-00  
  2.2200e-07    1.000e+00    1.000e+00    1.000e+00    1.000e-00  
  2.2300e-07    1.000e+00    1.000e+00    1.000e+00    1.000e-00  
  2.2400e-07    1.000e+00    1.000e+00    1.000e+00    1.000e-00  
  2.2500e-07    1.000e+00    1.000e+00    1.000e+00    1.000e-00  
  2.2600e-07    1.000e+00    1.000e+00    1.000e+00    1.000e-00  
  2.2700e-07    1.000e+00    1.000e+00    1.000e+00    1.000e-00  
  2.2800e-07    1.000e+00    1.000e+00    1.000e+00    1.000e-00  
  2.2900e-07    1.000e+00    1.000e+00    1.000e+00    1.000e-00  
  2.3000e-07    1.000e+00    1.000e+00    1.000e+00    1.000e-00  
  2.3100e-07    1.000e+00    1.000e+00    1.000e+00    1.000e-00  
  2.3200e-07    1.000e+00    1.000e+00    1.000e+00    1.000e-00  
  2.3300e-07    1.000e+00    1.000e+00    1.000e+00    1.000e-00  
  2.3400e-07    1.000e+00    1.000e+00    1.000e+00    1.000e-00  
  2.3500e-07    1.000e+00    1.000e+00    1.000e+00    1.000e-00  
  2.3600e-07    1.000e+00    1.000e+00    1.000e+00    1.000e-00  
  2.3700e-07    1.000e+00    1.000e+00    1.000e+00    1.000e-00  
  2.3800e-07    1.000e+00    1.000e+00    1.000e+00    1.000e-00  
  2.3900e-07    1.000e+00    1.000e+00    1.000e+00    1.000e-00  
  2.4000e-07    1.000e+00    1.000e+00    1.000e+00    1.000e-00  
  2.4100e-07    1.000e+00    1.000e+00    1.000e+00    1.000e-00  
  2.4200e-07    1.000e+00    1.000e+00    1.000e+00    1.000e-00  
  2.4300e-07    1.000e+00    1.000e+00    1.000e+00    1.000e-00  
  2.4400e-07    1.000e+00    1.000e+00    1.000e+00    1.000e-00  
  2.4500e-07    1.000e+00    1.000e+00    1.000e+00    1.000e-00  
  2.4600e-07    1.000e+00    1.000e+00    1.000e+00    1.000e-00  
  2.4700e-07    1.000e+00    1.000e+00    1.000e+00    1.000e-00  
  2.4800e-07    1.000e+00    1.000e+00    1.000e+00    1.000e-00  
  2.4900e-07    1.000e+00    1.000e+00    1.000e+00    1.000e-00  
  2.5000e-07    1.000e+00    1.000e+00    1.000e+00    1.000e-00  
  2.5100e-07    1.000e+00    1.000e+00    1.000e+00    1.000e-00  
  2.5200e-07    1.000e+00    1.000e+00    1.000e+00    1.000e-00  
  2.5300e-07    1.000e+00    5.000e-01    5.000e-01    4.987e-01  
  2.5400e-07    1.000e+00    0.000e+00    0.000e+00    9.998e-01  
  2.5500e-07    1.000e+00    0.000e+00    0.000e+00    1.000e-00  
  2.5600e-07    1.000e+00    0.000e+00    0.000e+00    1.000e-00  
  2.5700e-07    1.000e+00    0.000e+00    0.000e+00    1.000e-00  
  2.5800e-07    1.000e+00    0.000e+00    0.000e+00    1.000e-00  
  2.5900e-07    1.000e+00    0.000e+00    0.000e+00    1.000e+00  
  2.6000e-07    1.000e+00    0.000e+00    0.000e+00    1.000e+00  
  2.6100e-07    1.000e+00    0.000e+00    0.000e+00    1.000e+00  
  2.6200e-07    1.000e+00    0.000e+00    0.000e+00    1.000e-00  
  2.6300e-07    1.000e+00    0.000e+00    0.000e+00    1.000e-00  
  2.6400e-07    1.000e+00    0.000e+00    0.000e+00    1.000e-00  
  2.6500e-07    1.000e+00    0.000e+00    0.000e+00    1.000e-00  
  2.6600e-07    1.000e+00    0.000e+00    0.000e+00    1.000e-00  
  2.6700e-07    1.000e+00    0.000e+00    0.000e+00    1.000e-00  
  2.6800e-07    1.000e+00    0.000e+00    0.000e+00    1.000e-00  
  2.6900e-07    1.000e+00    0.000e+00    0.000e+00    1.000e-00  
  2.7000e-07    1.000e+00    0.000e+00    0.000e+00    1.000e-00  
  2.7100e-07    1.000e+00    0.000e+00    0.000e+00    1.000e-00  
  2.7200e-07    1.000e+00    0.000e+00    0.000e+00    1.000e-00  
  2.7300e-07    5.000e-01    0.000e+00    0.000e+00    9.506e-01  
  2.7400e-07    0.000e+00    0.000e+00    0.000e+00   -6.586e-06  
  2.7500e-07    0.000e+00    0.000e+00    0.000e+00    0.000e+00  
  2.7600e-07    0.000e+00    0.000e+00    0.000e+00    0.000e+00  
  2.7700e-07    0.000e+00    0.000e+00    0.000e+00    0.000e+00  
  2.7800e-07    0.000e+00    0.000e+00    0.000e+00    0.000e+00  
  2.7900e-07    0.000e+00    0.000e+00    0.000e+00    0.000e+00  
  2.8000e-07    0.000e+00    0.000e+00    0.000e+00    0.000e+00  
  2.8100e-07    0.000e+00    0.000e+00    0.000e+00    0.000e+00  
  2.8200e-07    0.000e+00    0.000e+00    0.000e+00    0.000e+00  
  2.8300e-07    0.000e+00    0.000e+00    0.000e+00    0.000e+00  
  2.8400e-07    0.000e+00    0.000e+00    0.000e+00    0.000e+00  
  2.8500e-07    0.000e+00    0.000e+00    0.000e+00    0.000e+00  
  2.8600e-07    0.000e+00    0.000e+00    0.000e+00    0.000e+00  
  2.8700e-07    0.000e+00    0.000e+00    0.000e+00    0.000e+00  
  2.8800e-07    0.000e+00    0.000e+00    0.000e+00    0.000e+00  
  2.8900e-07    0.000e+00    0.000e+00    0.000e+00    0.000e+00  
  2.9000e-07    0.000e+00    0.000e+00    0.000e+00    0.000e+00  
  2.9100e-07    0.000e+00    0.000e+00    0.000e+00    0.000e+00  
  2.9200e-07    0.000e+00    0.000e+00    0.000e+00    0.000e+00  
  2.9300e-07    0.000e+00    0.000e+00    0.000e+00    0.000e+00  
  2.9400e-07    0.000e+00    0.000e+00    0.000e+00    0.000e+00  
  2.9500e-07    0.000e+00    0.000e+00    0.000e+00    0.000e+00  
  2.9600e-07    0.000e+00    0.000e+00    0.000e+00    0.000e+00  
  2.9700e-07    0.000e+00    0.000e+00    0.000e+00    0.000e+00  
  2.9800e-07    0.000e+00    0.000e+00    0.000e+00    0.000e+00  
  2.9900e-07    0.000e+00    0.000e+00    0.000e+00    0.000e+00  
  3.0000e-07    0.000e+00    0.000e+00    0.000e+00    0.000e+00  
  3.0100e-07    5.000e-01    5.000e-01    0.000e+00   -2.454e-05  
  3.0200e-07    1.000e+00    1.000e+00    0.000e+00   -1.959e-05  
  3.0300e-07    1.000e+00    1.000e+00    0.000e+00    0.000e+00  
  3.0400e-07    1.000e+00    1.000e+00    0.000e+00    0.000e+00  
  3.0500e-07    1.000e+00    1.000e+00    0.000e+00    0.000e+00  
  3.0600e-07    1.000e+00    1.000e+00    0.000e+00    0.000e+00  
  3.0700e-07    1.000e+00    1.000e+00    0.000e+00    0.000e+00  
  3.0800e-07    1.000e+00    1.000e+00    0.000e+00    0.000e+00  
  3.0900e-07    1.000e+00    1.000e+00    0.000e+00    0.000e+00  
  3.1000e-07    1.000e+00    1.000e+00    0.000e+00    0.000e+00  
  3.1100e-07    1.000e+00    1.000e+00    0.000e+00    0.000e+00  
  3.1200e-07    1.000e+00    1.000e+00    0.000e+00    0.000e+00  
  3.1300e-07    1.000e+00    1.000e+00    0.000e+00    0.000e+00  
  3.1400e-07    1.000e+00    1.000e+00    0.000e+00    0.000e+00  
  3.1500e-07    1.000e+00    1.000e+00    0.000e+00    0.000e+00  
  3.1600e-07    1.000e+00    1.000e+00    0.000e+00    0.000e+00  
  3.1700e-07    1.000e+00    1.000e+00    0.000e+00    0.000e+00  
  3.1800e-07    1.000e+00    1.000e+00    0.000e+00    0.000e+00  
  3.1900e-07    1.000e+00    1.000e+00    0.000e+00    0.000e+00  
  3.2000e-07    1.000e+00    1.000e+00    0.000e+00    0.000e+00  
  3.2100e-07    1.000e+00    1.000e+00    0.000e+00    0.000e+00  
  3.2200e-07    1.000e+00    1.000e+00    0.000e+00    0.000e+00  
  3.2300e-07    1.000e+00    1.000e+00    0.000e+00    0.000e+00  
  3.2400e-07    1.000e+00    1.000e+00    0.000e+00    0.000e+00  
  3.2500e-07    1.000e+00    1.000e+00    0.000e+00    0.000e+00  
  3.2600e-07    1.000e+00    1.000e+00    0.000e+00    0.000e+00  
  3.2700e-07    1.000e+00    1.000e+00    0.000e+00    0.000e+00  
  3.2800e-07    1.000e+00    1.000e+00    0.000e+00    0.000e+00  
  3.2900e-07    1.000e+00    1.000e+00    0.000e+00    0.000e+00  
  3.3000e-07    1.000e+00    1.000e+00    0.000e+00    0.000e+00  
  3.3100e-07    1.000e+00    1.000e+00    0.000e+00    0.000e+00  
  3.3200e-07    1.000e+00    1.000e+00    0.000e+00    0.000e+00  
  3.3300e-07    1.000e+00    1.000e+00    0.000e+00    0.000e+00  
  3.3400e-07    1.000e+00    1.000e+00    0.000e+00    0.000e+00  
  3.3500e-07    1.000e+00    1.000e+00    0.000e+00    0.000e+00  
  3.3600e-07    1.000e+00    1.000e+00    0.000e+00    0.000e+00  
  3.3700e-07    1.000e+00    1.000e+00    0.000e+00    0.000e+00  
  3.3800e-07    1.000e+00    1.000e+00    0.000e+00    0.000e+00  
  3.3900e-07    1.000e+00    1.000e+00    0.000e+00    0.000e+00  
  3.4000e-07    1.000e+00    1.000e+00    0.000e+00    0.000e+00  
  3.4100e-07    1.000e+00    1.000e+00    0.000e+00    0.000e+00  
  3.4200e-07    1.000e+00    1.000e+00    0.000e+00    0.000e+00  
  3.4300e-07    1.000e+00    1.000e+00    0.000e+00    0.000e+00  
  3.4400e-07    1.000e+00    1.000e+00    0.000e+00    0.000e+00  
  3.4500e-07    1.000e+00    1.000e+00    0.000e+00    0.000e+00  
  3.4600e-07    1.000e+00    1.000e+00    0.000e+00    0.000e+00  
  3.4700e-07    1.000e+00    1.000e+00    0.000e+00    0.000e+00  
  3.4800e-07    1.000e+00    1.000e+00    0.000e+00    0.000e+00  
  3.4900e-07    1.000e+00    1.000e+00    0.000e+00    0.000e+00  
  3.5000e-07    1.000e+00    1.000e+00    0.000e+00    0.000e+00  
  3.5100e-07    1.000e+00    1.000e+00    0.000e+00    0.000e+00  
  3.5200e-07    1.000e+00    1.000e+00    0.000e+00    0.000e+00  
  3.5300e-07    1.000e+00    5.000e-01    0.000e+00   -1.374e-04  
  3.5400e-07    1.000e+00    0.000e+00    0.000e+00    9.999e-01  
  3.5500e-07    1.000e+00    0.000e+00    0.000e+00    1.000e-00  
  3.5600e-07    1.000e+00    0.000e+00    0.000e+00    1.000e-00  
  3.5700e-07    1.000e+00    0.000e+00    0.000e+00    1.000e-00  
  3.5800e-07    1.000e+00    0.000e+00    0.000e+00    1.000e-00  
  3.5900e-07    1.000e+00    0.000e+00    0.000e+00    1.000e-00  
  3.6000e-07    1.000e+00    0.000e+00    0.000e+00    1.000e-00  
  3.6100e-07    1.000e+00    0.000e+00    0.000e+00    1.000e-00  
  3.6200e-07    1.000e+00    0.000e+00    0.000e+00    1.000e-00  
  3.6300e-07    1.000e+00    0.000e+00    0.000e+00    1.000e-00  
  3.6400e-07    1.000e+00    0.000e+00    0.000e+00    1.000e-00  
  3.6500e-07    1.000e+00    0.000e+00    0.000e+00    1.000e-00  
  3.6600e-07    1.000e+00    0.000e+00    0.000e+00    1.000e-00  
  3.6700e-07    1.000e+00    0.000e+00    0.000e+00    1.000e-00  
  3.6800e-07    1.000e+00    0.000e+00    0.000e+00    1.000e-00  
  3.6900e-07    1.000e+00    0.000e+00    0.000e+00    1.000e-00  
  3.7000e-07    1.000e+00    0.000e+00    0.000e+00    1.000e-00  
  3.7100e-07    1.000e+00    0.000e+00    0.000e+00    1.000e-00  
  3.7200e-07    1.000e+00    0.000e+00    0.000e+00    1.000e-00  
  3.7300e-07    5.000e-01    0.000e+00    0.000e+00    9.676e-01  
  3.7400e-07    0.000e+00    0.000e+00    0.000e+00   -7.677e-06  
  3.7500e-07    0.000e+00    0.000e+00    0.000e+00    0.000e+00  
  3.7600e-07    0.000e+00    0.000e+00    0.000e+00    0.000e+00  
  3.7700e-07    0.000e+00    0.000e+00    0.000e+00    0.000e+00  
  3.7800e-07    0.000e+00    0.000e+00    0.000e+00    0.000e+00  
  3.7900e-07    0.000e+00    0.000e+00    0.000e+00    0.000e+00  
  3.8000e-07    0.000e+00    0.000e+00    0.000e+00    0.000e+00  
  3.8100e-07    0.000e+00    0.000e+00    0.000e+00    0.000e+00  
  3.8200e-07    0.000e+00    0.000e+00    0.000e+00    0.000e+00  
  3.8300e-07    0.000e+00    0.000e+00    0.000e+00    0.000e+00  
  3.8400e-07    0.000e+00    0.000e+00    0.000e+00    0.000e+00  
  3.8500e-07    0.000e+00    0.000e+00    0.000e+00    0.000e+00  
  3.8600e-07    0.000e+00    0.000e+00    0.000e+00    0.000e+00  
  3.8700e-07    0.000e+00    0.000e+00    0.000e+00    0.000e+00  
  3.8800e-07    0.000e+00    0.000e+00    0.000e+00    0.000e+00  
  3.8900e-07    0.000e+00    0.000e+00    0.000e+00    0.000e+00  
  3.9000e-07    0.000e+00    0.000e+00    0.000e+00    0.000e+00  
  3.9100e-07    0.000e+00    0.000e+00    0.000e+00    0.000e+00  
  3.9200e-07    0.000e+00    0.000e+00    0.000e+00    0.000e+00  
  3.9300e-07    0.000e+00    0.000e+00    0.000e+00    0.000e+00  
  3.9400e-07    0.000e+00    0.000e+00    0.000e+00    0.000e+00  
  3.9500e-07    0.000e+00    0.000e+00    0.000e+00    0.000e+00  
  3.9600e-07    0.000e+00    0.000e+00    0.000e+00    0.000e+00  
  3.9700e-07    0.000e+00    0.000e+00    0.000e+00    0.000e+00  
  3.9800e-07    0.000e+00    0.000e+00    0.000e+00    0.000e+00  
  3.9900e-07    0.000e+00    0.000e+00    0.000e+00    0.000e+00  
  4.0000e-07    0.000e+00    0.000e+00    0.000e+00    0.000e+00  
  4.0100e-07    5.000e-01    5.000e-01    0.000e+00   -9.745e-06  
  4.0200e-07    1.000e+00    1.000e+00    0.000e+00    1.390e-05  
  4.0300e-07    1.000e+00    1.000e+00    0.000e+00    0.000e+00  
  4.0400e-07    1.000e+00    1.000e+00    0.000e+00    0.000e+00  
  4.0500e-07    1.000e+00    1.000e+00    0.000e+00    0.000e+00  
  4.0600e-07    1.000e+00    1.000e+00    0.000e+00    0.000e+00  
  4.0700e-07    1.000e+00    1.000e+00    0.000e+00    0.000e+00  
  4.0800e-07    1.000e+00    1.000e+00    0.000e+00    0.000e+00  
  4.0900e-07    1.000e+00    1.000e+00    0.000e+00    0.000e+00  
  4.1000e-07    1.000e+00    1.000e+00    0.000e+00    0.000e+00  
  4.1100e-07    1.000e+00    1.000e+00    0.000e+00    0.000e+00  
  4.1200e-07    1.000e+00    1.000e+00    0.000e+00    0.000e+00  
  4.1300e-07    1.000e+00    1.000e+00    0.000e+00    0.000e+00  
  4.1400e-07    1.000e+00    1.000e+00    0.000e+00    0.000e+00  
  4.1500e-07    1.000e+00    1.000e+00    0.000e+00    0.000e+00  
  4.1600e-07    1.000e+00    1.000e+00    0.000e+00    0.000e+00  
  4.1700e-07    1.000e+00    1.000e+00    0.000e+00    0.000e+00  
  4.1800e-07    1.000e+00    1.000e+00    0.000e+00    0.000e+00  
  4.1900e-07    1.000e+00    1.000e+00    0.000e+00    0.000e+00  
  4.2000e-07    1.000e+00    1.000e+00    0.000e+00    0.000e+00  
  4.2100e-07    1.000e+00    1.000e+00    0.000e+00    0.000e+00  
  4.2200e-07    1.000e+00    1.000e+00    0.000e+00    0.000e+00  
  4.2300e-07    1.000e+00    1.000e+00    0.000e+00    0.000e+00  
  4.2400e-07    1.000e+00    1.000e+00    0.000e+00    0.000e+00  
  4.2500e-07    1.000e+00    1.000e+00    0.000e+00    0.000e+00  
  4.2600e-07    1.000e+00    1.000e+00    0.000e+00    0.000e+00  
  4.2700e-07    1.000e+00    1.000e+00    0.000e+00    0.000e+00  
  4.2800e-07    1.000e+00    1.000e+00    0.000e+00    0.000e+00  
  4.2900e-07    1.000e+00    1.000e+00    0.000e+00    0.000e+00  
  4.3000e-07    1.000e+00    1.000e+00    0.000e+00    0.000e+00  
  4.3100e-07    1.000e+00    1.000e+00    0.000e+00    0.000e+00  
  4.3200e-07    1.000e+00    1.000e+00    0.000e+00    0.000e+00  
  4.3300e-07    1.000e+00    1.000e+00    0.000e+00    0.000e+00  
  4.3400e-07    1.000e+00    1.000e+00    0.000e+00    0.000e+00  
  4.3500e-07    1.000e+00    1.000e+00    0.000e+00    0.000e+00  
  4.3600e-07    1.000e+00    1.000e+00    0.000e+00    0.000e+00  
  4.3700e-07    1.000e+00    1.000e+00    0.000e+00    0.000e+00  
  4.3800e-07    1.000e+00    1.000e+00    0.000e+00    0.000e+00  
  4.3900e-07    1.000e+00    1.000e+00    0.000e+00    0.000e+00  
  4.4000e-07    1.000e+00    1.000e+00    0.000e+00    0.000e+00  
  4.4100e-07    1.000e+00    1.000e+00    0.000e+00    0.000e+00  
  4.4200e-07    1.000e+00    1.000e+00    0.000e+00    0.000e+00  
  4.4300e-07    1.000e+00    1.000e+00    0.000e+00    0.000e+00  
  4.4400e-07    1.000e+00    1.000e+00    0.000e+00    0.000e+00  
  4.4500e-07    1.000e+00    1.000e+00    0.000e+00    0.000e+00  
  4.4600e-07    1.000e+00    1.000e+00    0.000e+00    0.000e+00  
  4.4700e-07    1.000e+00    1.000e+00    0.000e+00    0.000e+00  
  4.4800e-07    1.000e+00    1.000e+00    0.000e+00    0.000e+00  
  4.4900e-07    1.000e+00    1.000e+00    0.000e+00    0.000e+00  
  4.5000e-07    1.000e+00    1.000e+00    0.000e+00    0.000e+00  
  4.5100e-07    1.000e+00    1.000e+00    0.000e+00    0.000e+00  
  4.5200e-07    1.000e+00    1.000e+00    0.000e+00    0.000e+00  
  4.5300e-07    1.000e+00    5.000e-01    0.000e+00   -1.493e-04  
  4.5400e-07    1.000e+00    0.000e+00    0.000e+00    9.999e-01  
  4.5500e-07    1.000e+00    0.000e+00    0.000e+00    1.000e-00  
  4.5600e-07    1.000e+00    0.000e+00    0.000e+00    1.000e-00  
  4.5700e-07    1.000e+00    0.000e+00    0.000e+00    1.000e-00  
  4.5800e-07    1.000e+00    0.000e+00    0.000e+00    1.000e-00  
  4.5900e-07    1.000e+00    0.000e+00    0.000e+00    1.000e-00  
  4.6000e-07    1.000e+00    0.000e+00    0.000e+00    1.000e-00  
  4.6100e-07    1.000e+00    0.000e+00    0.000e+00    1.000e-00  
  4.6200e-07    1.000e+00    0.000e+00    0.000e+00    1.000e+00  
  4.6300e-07    1.000e+00    0.000e+00    0.000e+00    1.000e-00  
  4.6400e-07    1.000e+00    0.000e+00    0.000e+00    1.000e-00  
  4.6500e-07    1.000e+00    0.000e+00    0.000e+00    1.000e-00  
  4.6600e-07    1.000e+00    0.000e+00    0.000e+00    1.000e-00  
  4.6700e-07    1.000e+00    0.000e+00    0.000e+00    1.000e-00  
  4.6800e-07    1.000e+00    0.000e+00    0.000e+00    1.000e-00  
  4.6900e-07    1.000e+00    0.000e+00    0.000e+00    1.000e-00  
  4.7000e-07    1.000e+00    0.000e+00    0.000e+00    1.000e-00  
  4.7100e-07    1.000e+00    0.000e+00    0.000e+00    1.000e-00  
  4.7200e-07    1.000e+00    0.000e+00    0.000e+00    1.000e-00  
  4.7300e-07    5.000e-01    0.000e+00    0.000e+00    9.462e-01  
  4.7400e-07    0.000e+00    0.000e+00    0.000e+00   -5.525e-06  
  4.7500e-07    0.000e+00    0.000e+00    0.000e+00    0.000e+00  
  4.7600e-07    0.000e+00    0.000e+00    0.000e+00    0.000e+00  
  4.7700e-07    0.000e+00    0.000e+00    0.000e+00    0.000e+00  
  4.7800e-07    0.000e+00    0.000e+00    0.000e+00    0.000e+00  
  4.7900e-07    0.000e+00    0.000e+00    0.000e+00    0.000e+00  
  4.8000e-07    0.000e+00    0.000e+00    0.000e+00    0.000e+00  
  4.8100e-07    0.000e+00    0.000e+00    0.000e+00    0.000e+00  
  4.8200e-07    0.000e+00    0.000e+00    0.000e+00    0.000e+00  
  4.8300e-07    0.000e+00    0.000e+00    0.000e+00    0.000e+00  
  4.8400e-07    0.000e+00    0.000e+00    0.000e+00    0.000e+00  
  4.8500e-07    0.000e+00    0.000e+00    0.000e+00    0.000e+00  
  4.8600e-07    0.000e+00    0.000e+00    0.000e+00    0.000e+00  
  4.8700e-07    0.000e+00    0.000e+00    0.000e+00    0.000e+00  
  4.8800e-07    0.000e+00    0.000e+00    0.000e+00    0.000e+00  
  4.8900e-07    0.000e+00    0.000e+00    0.000e+00    0.000e+00  
  4.9000e-07    0.000e+00    0.000e+00    0.000e+00    0.000e+00  
  4.9100e-07    0.000e+00    0.000e+00    0.000e+00    0.000e+00  
  4.9200e-07    0.000e+00    0.000e+00    0.000e+00    0.000e+00  
  4.9300e-07    0.000e+00    0.000e+00    0.000e+00    0.000e+00  
  4.9400e-07    0.000e+00    0.000e+00    0.000e+00    0.000e+00  
  4.9500e-07    0.000e+00    0.000e+00    0.000e+00    0.000e+00  
  4.9600e-07    0.000e+00    0.000e+00    0.000e+00    0.000e+00  
  4.9700e-07    0.000e+00    0.000e+00    0.000e+00    0.000e+00  
  4.9800e-07    0.000e+00    0.000e+00    0.000e+00    0.000e+00  
  4.9900e-07    0.000e+00    0.000e+00    0.000e+00    0.000e+00  
  5.0000e-07    0.000e+00    0.000e+00    0.000e+00    0.000e+00  
y
x

        time    voltage    
                     6     
  0.0000e+00    0.000e+00  
  1.0000e-09    4.967e-01  
  2.0000e-09    9.999e-01  
  3.0000e-09    1.000e-00  
  4.0000e-09    1.000e-00  
  5.0000e-09    1.000e-00  
  6.0000e-09    1.000e-00  
  7.0000e-09    1.000e-00  
  8.0000e-09    1.000e-00  
  9.0000e-09    1.000e-00  
  1.0000e-08    1.000e-00  
  1.1000e-08    1.000e-00  
  1.2000e-08    1.000e-00  
  1.3000e-08    1.000e-00  
  1.4000e-08    1.000e-00  
  1.5000e-08    1.000e-00  
  1.6000e-08    1.000e-00  
  1.7000e-08    1.000e-00  
  1.8000e-08    1.000e-00  
  1.9000e-08    1.000e-00  
  2.0000e-08    1.000e-00  
  2.1000e-08    1.000e-00  
  2.2000e-08    1.000e-00  
  2.3000e-08    1.000e-00  
  2.4000e-08    1.000e-00  
  2.5000e-08    1.000e-00  
  2.6000e-08    1.000e-00  
  2.7000e-08    1.000e-00  
  2.8000e-08    1.000e-00  
  2.9000e-08    1.000e-00  
  3.0000e-08    1.000e-00  
  3.1000e-08    1.000e-00  
  3.2000e-08    1.000e-00  
  3.3000e-08    1.000e-00  
  3.4000e-08    1.000e-00  
  3.5000e-08    1.000e-00  
  3.6000e-08    1.000e-00  
  3.7000e-08    1.000e-00  
  3.8000e-08    1.000e-00  
  3.9000e-08    1.000e-00  
  4.0000e-08    1.000e-00  
  4.1000e-08    1.000e-00  
  4.2000e-08    1.000e-00  
  4.3000e-08    1.000e-00  
  4.4000e-08    1.000e-00  
  4.5000e-08    1.000e-00  
  4.6000e-08    1.000e-00  
  4.7000e-08    1.000e-00  
  4.8000e-08    1.000e-00  
  4.9000e-08    1.000e-00  
  5.0000e-08    1.000e-00  
  5.1000e-08    1.000e-00  
  5.2000e-08    1.000e-00  
  5.3000e-08    4.964e-01  
  5.4000e-08    9.999e-01  
  5.5000e-08    1.000e-00  
  5.6000e-08    1.000e-00  
  5.7000e-08    1.000e-00  
  5.8000e-08    1.000e-00  
  5.9000e-08    1.000e-00  
  6.0000e-08    1.000e-00  
  6.1000e-08    1.000e-00  
  6.2000e-08    1.000e-00  
  6.3000e-08    1.000e-00  
  6.4000e-08    1.000e-00  
  6.5000e-08    1.000e-00  
  6.6000e-08    1.000e-00  
  6.7000e-08    1.000e-00  
  6.8000e-08    1.000e-00  
  6.9000e-08    1.000e-00  
  7.0000e-08    1.000e-00  
  7.1000e-08    1.000e-00  
  7.2000e-08    1.000e-00  
  7.3000e-08    9.881e-01  
  7.4000e-08   -3.482e-06  
  7.5000e-08    0.000e+00  
  7.6000e-08    0.000e+00  
  7.7000e-08    0.000e+00  
  7.8000e-08    0.000e+00  
  7.9000e-08    0.000e+00  
  8.0000e-08    0.000e+00  
  8.1000e-08    0.000e+00  
  8.2000e-08    0.000e+00  
  8.3000e-08    0.000e+00  
  8.4000e-08    0.000e+00  
  8.5000e-08    0.000e+00  
  8.6000e-08    0.000e+00  
  8.7000e-08    0.000e+00  
  8.8000e-08    0.000e+00  
  8.9000e-08    0.000e+00  
  9.0000e-08    0.000e+00  
  9.1000e-08    0.000e+00  
  9.2000e-08    0.000e+00  
  9.3000e-08    0.000e+00  
  9.4000e-08    0.000e+00  
  9.5000e-08    0.000e+00  
  9.6000e-08    0.000e+00  
  9.7000e-08    0.000e+00  
  9.8000e-08    0.000e+00  
  9.9000e-08    0.000e+00  
  1.0000e-07    0.000e+00  
  1.0100e-07    4.963e-01  
  1.0200e-07    9.999e-01  
  1.0300e-07    1.000e-00  
  1.0400e-07    1.000e-00  
  1.0500e-07    1.000e-00  
  1.0600e-07    1.000e-00  
  1.0700e-07    1.000e-00  
  1.0800e-07    1.000e-00  
  1.0900e-07    1.000e-00  
  1.1000e-07    1.000e-00  
  1.1100e-07    1.000e-00  
  1.1200e-07    1.000e-00  
  1.1300e-07    1.000e-00  
  1.1400e-07    1.000e-00  
  1.1500e-07    1.000e-00  
  1.1600e-07    1.000e-00  
  1.1700e-07    1.000e-00  
  1.1800e-07    1.000e-00  
  1.1900e-07    1.000e-00  
  1.2000e-07    1.000e-00  
  1.2100e-07    1.000e-00  
  1.2200e-07    1.000e-00  
  1.2300e-07    1.000e-00  
  1.2400e-07    1.000e-00  
  1.2500e-07    1.000e-00  
  1.2600e-07    1.000e-00  
  1.2700e-07    1.000e-00  
  1.2800e-07    1.000e-00  
  1.2900e-07    1.000e-00  
  1.3000e-07    1.000e-00  
  1.3100e-07    1.000e-00  
  1.3200e-07    1.000e-00  
  1.3300e-07    1.000e-00  
  1.3400e-07    1.000e-00  
  1.3500e-07    1.000e-00  
  1.3600e-07    1.000e-00  
  1.3700e-07    1.000e-00  
  1.3800e-07    1.000e-00  
  1.3900e-07    1.000e-00  
  1.4000e-07    1.000e-00  
  1.4100e-07    1.000e-00  
  1.4200e-07    1.000e-00  
  1.4300e-07    1.000e-00  
  1.4400e-07    1.000e-00  
  1.4500e-07    1.000e-00  
  1.4600e-07    1.000e-00  
  1.4700e-07    1.000e-00  
  1.4800e-07    1.000e-00  
  1.4900e-07    1.000e-00  
  1.5000e-07    1.000e-00  
  1.5100e-07    1.000e-00  
  1.5200e-07    1.000e-00  
  1.5300e-07    4.928e-01  
  1.5400e-07    9.999e-01  
  1.5500e-07    1.000e-00  
  1.5600e-07    1.000e-00  
  1.5700e-07    1.000e-00  
  1.5800e-07    1.000e-00  
  1.5900e-07    1.000e+00  
  1.6000e-07    1.000e+00  
  1.6100e-07    1.000e-00  
  1.6200e-07    1.000e-00  
  1.6300e-07    1.000e-00  
  1.6400e-07    1.000e-00  
  1.6500e-07    1.000e-00  
  1.6600e-07    1.000e-00  
  1.6700e-07    1.000e-00  
  1.6800e-07    1.000e-00  
  1.6900e-07    1.000e-00  
  1.7000e-07    1.000e-00  
  1.7100e-07    1.000e-00  
  1.7200e-07    1.000e+00  
  1.7300e-07    9.936e-01  
  1.7400e-07   -1.903e-06  
  1.7500e-07    0.000e+00  
  1.7600e-07    0.000e+00  
  1.7700e-07    0.000e+00  
  1.7800e-07    0.000e+00  
  1.7900e-07    0.000e+00  
  1.8000e-07    0.000e+00  
  1.8100e-07    0.000e+00  
  1.8200e-07    0.000e+00  
  1.8300e-07    0.000e+00  
  1.8400e-07    0.000e+00  
  1.8500e-07    0.000e+00  
  1.8600e-07    0.000e+00  
  1.8700e-07    0.000e+00  
  1.8800e-07    0.000e+00  
  1.8900e-07    0.000e+00  
  1.9000e-07    0.000e+00  
  1.9100e-07    0.000e+00  
  1.9200e-07    0.000e+00  
  1.9300e-07    0.000e+00  
  1.9400e-07    0.000e+00  
  1.9500e-07    0.000e+00  
  1.9600e-07    0.000e+00  
  1.9700e-07    0.000e+00  
  1.9800e-07    0.000e+00  
  1.9900e-07    0.000e+00  
  2.0000e-07    0.000e+00  
  2.0100e-07    4.961e-01  
  2.0200e-07    1.000e-00  
  2.0300e-07    1.000e-00  
  2.0400e-07    1.000e-00  
  2.0500e-07    1.000e-00  
  2.0600e-07    1.000e-00  
  2.0700e-07    1.000e-00  
  2.0800e-07    1.000e-00  
  2.0900e-07    1.000e-00  
  2.1000e-07    1.000e-00  
  2.1100e-07    1.000e-00  
  2.1200e-07    1.000e-00  
  2.1300e-07    1.000e-00  
  2.1400e-07    1.000e-00  
  2.1500e-07    1.000e-00  
  2.1600e-07    1.000e-00  
  2.1700e-07    1.000e-00  
  2.1800e-07    1.000e-00  
  2.1900e-07    1.000e-00  
  2.2000e-07    1.000e-00  
  2.2100e-07    1.000e-00  
  2.2200e-07    1.000e-00  
  2.2300e-07    1.000e-00  
  2.2400e-07    1.000e-00  
  2.2500e-07    1.000e-00  
  2.2600e-07    1.000e-00  
  2.2700e-07    1.000e-00  
  2.2800e-07    1.000e-00  
  2.2900e-07    1.000e-00  
  2.3000e-07    1.000e-00  
  2.3100e-07    1.000e-00  
  2.3200e-07    1.000e-00  
  2.3300e-07    1.000e-00  
  2.3400e-07    1.000e-00  
  2.3500e-07    1.000e-00  
  2.3600e-07    1.000e-00  
  2.3700e-07    1.000e-00  
  2.3800e-07    1.000e-00  
  2.3900e-07    1.000e-00  
  2.4000e-07    1.000e-00  
  2.4100e-07    1.000e-00  
  2.4200e-07    1.000e-00  
  2.4300e-07    1.000e-00  
  2.4400e-07    1.000e-00  
  2.4500e-07    1.000e-00  
  2.4600e-07    1.000e-00  
  2.4700e-07    1.000e-00  
  2.4800e-07    1.000e-00  
  2.4900e-07    1.000e-00  
  2.5000e-07    1.000e-00  
  2.5100e-07    1.000e-00  
  2.5200e-07    1.000e-00  
  2.5300e-07    4.960e-01  
  2.5400e-07   -5.355e-06  
  2.5500e-07    0.000e+00  
  2.5600e-07    0.000e+00  
  2.5700e-07    0.000e+00  
  2.5800e-07    0.000e+00  
  2.5900e-07    0.000e+00  
  2.6000e-07    0.000e+00  
  2.6100e-07    0.000e+00  
  2.6200e-07    0.000e+00  
  2.6300e-07    0.000e+00  
  2.6400e-07    0.000e+00  
  2.6500e-07    0.000e+00  
  2.6600e-07    0.000e+00  
  2.6700e-07    0.000e+00  
  2.6800e-07    0.000e+00  
  2.6900e-07    0.000e+00  
  2.7000e-07    0.000e+00  
  2.7100e-07    0.000e+00  
  2.7200e-07    0.000e+00  
  2.7300e-07   -1.211e-04  
  2.7400e-07   -2.787e-06  
  2.7500e-07    0.000e+00  
  2.7600e-07    0.000e+00  
  2.7700e-07    0.000e+00  
  2.7800e-07    0.000e+00  
  2.7900e-07    0.000e+00  
  2.8000e-07    0.000e+00  
  2.8100e-07    0.000e+00  
  2.8200e-07    0.000e+00  
  2.8300e-07    0.000e+00  
  2.8400e-07    0.000e+00  
  2.8500e-07    0.000e+00  
  2.8600e-07    0.000e+00  
  2.8700e-07    0.000e+00  
  2.8800e-07    0.000e+00  
  2.8900e-07    0.000e+00  
  2.9000e-07    0.000e+00  
  2.9100e-07    0.000e+00  
  2.9200e-07    0.000e+00  
  2.9300e-07    0.000e+00  
  2.9400e-07    0.000e+00  
  2.9500e-07    0.000e+00  
  2.9600e-07    0.000e+00  
  2.9700e-07    0.000e+00  
  2.9800e-07    0.000e+00  
  2.9900e-07    0.000e+00  
  3.0000e-07    0.000e+00  
  3.0100e-07    4.964e-01  
  3.0200e-07    9.999e-01  
  3.0300e-07    1.000e+00  
  3.0400e-07    1.000e-00  
  3.0500e-07    1.000e-00  
  3.0600e-07    1.000e-00  
  3.0700e-07    1.000e-00  
  3.0800e-07    1.000e-00  
  3.0900e-07    1.000e+00  
  3.1000e-07    1.000e+00  
  3.1100e-07    1.000e+00  
  3.1200e-07    1.000e-00  
  3.1300e-07    1.000e-00  
  3.1400e-07    1.000e-00  
  3.1500e-07    1.000e-00  
  3.1600e-07    1.000e-00  
  3.1700e-07    1.000e-00  
  3.1800e-07    1.000e-00  
  3.1900e-07    1.000e-00  
  3.2000e-07    1.000e-00  
  3.2100e-07    1.000e-00  
  3.2200e-07    1.000e-00  
  3.2300e-07    1.000e-00  
  3.2400e-07    1.000e-00  
  3.2500e-07    1.000e-00  
  3.2600e-07    1.000e-00  
  3.2700e-07    1.000e-00  
  3.2800e-07    1.000e-00  
  3.2900e-07    1.000e-00  
  3.3000e-07    1.000e-00  
  3.3100e-07    1.000e-00  
  3.3200e-07    1.000e-00  
  3.3300e-07    1.000e-00  
  3.3400e-07    1.000e-00  
  3.3500e-07    1.000e-00  
  3.3600e-07    1.000e-00  
  3.3700e-07    1.000e-00  
  3.3800e-07    1.000e-00  
  3.3900e-07    1.000e-00  
  3.4000e-07    1.000e-00  
  3.4100e-07    1.000e-00  
  3.4200e-07    1.000e-00  
  3.4300e-07    1.000e-00  
  3.4400e-07    1.000e-00  
  3.4500e-07    1.000e-00  
  3.4600e-07    1.000e+00  
  3.4700e-07    1.000e+00  
  3.4800e-07    1.000e+00  
  3.4900e-07    1.000e+00  
  3.5000e-07    1.000e-00  
  3.5100e-07    1.000e-00  
  3.5200e-07    1.000e-00  
  3.5300e-07    4.966e-01  
  3.5400e-07   -3.367e-05  
  3.5500e-07    0.000e+00  
  3.5600e-07    0.000e+00  
  3.5700e-07    0.000e+00  
  3.5800e-07    0.000e+00  
  3.5900e-07    0.000e+00  
  3.6000e-07    0.000e+00  
  3.6100e-07    0.000e+00  
  3.6200e-07    0.000e+00  
  3.6300e-07    0.000e+00  
  3.6400e-07    0.000e+00  
  3.6500e-07    0.000e+00  
  3.6600e-07    0.000e+00  
  3.6700e-07    0.000e+00  
  3.6800e-07    0.000e+00  
  3.6900e-07    0.000e+00  
  3.7000e-07    0.000e+00  
  3.7100e-07    0.000e+00  
  3.7200e-07    0.000e+00  
  3.7300e-07   -6.316e-05  
  3.7400e-07   -1.121e-05  
  3.7500e-07    0.000e+00  
  3.7600e-07    0.000e+00  
  3.7700e-07    0.000e+00  
  3.7800e-07    0.000e+00  
  3.7900e-07    0.000e+00  
  3.8000e-07    0.000e+00  
  3.8100e-07    0.000e+00  
  3.8200e-07    0.000e+00  
  3.8300e-07    0.000e+00  
  3.8400e-07    0.000e+00  
  3.8500e-07    0.000e+00  
  3.8600e-07    0.000e+00  
  3.8700e-07    0.000e+00  
  3.8800e-07    0.000e+00  
  3.8900e-07    0.000e+00  
  3.9000e-07    0.000e+00  
  3.9100e-07    0.000e+00  
  3.9200e-07    0.000e+00  
  3.9300e-07    0.000e+00  
  3.9400e-07    0.000e+00  
  3.9500e-07    0.000e+00  
  3.9600e-07    0.000e+00  
  3.9700e-07    0.000e+00  
  3.9800e-07    0.000e+00  
  3.9900e-07    0.000e+00  
  4.0000e-07    0.000e+00  
  4.0100e-07    4.967e-01  
  4.0200e-07    9.999e-01  
  4.0300e-07    1.000e-00  
  4.0400e-07    1.000e-00  
  4.0500e-07    1.000e-00  
  4.0600e-07    1.000e-00  
  4.0700e-07    1.000e-00  
  4.0800e-07    1.000e-00  
  4.0900e-07    1.000e-00  
  4.1000e-07    1.000e-00  
  4.1100e-07    1.000e-00  
  4.1200e-07    1.000e-00  
  4.1300e-07    1.000e-00  
  4.1400e-07    1.000e-00  
  4.1500e-07    1.000e-00  
  4.1600e-07    1.000e-00  
  4.1700e-07    1.000e-00  
  4.1800e-07    1.000e-00  
  4.1900e-07    1.000e-00  
  4.2000e-07    1.000e-00  
  4.2100e-07    1.000e-00  
  4.2200e-07    1.000e-00  
  4.2300e-07    1.000e-00  
  4.2400e-07    1.000e-00  
  4.2500e-07    1.000e-00  
  4.2600e-07    1.000e-00  
  4.2700e-07    1.000e-00  
  4.2800e-07    1.000e-00  
  4.2900e-07    1.000e-00  
  4.3000e-07    1.000e-00  
  4.3100e-07    1.000e-00  
  4.3200e-07    1.000e-00  
  4.3300e-07    1.000e-00  
  4.3400e-07    1.000e-00  
  4.3500e-07    1.000e-00  
  4.3600e-07    1.000e-00  
  4.3700e-07    1.000e-00  
  4.3800e-07    1.000e-00  
  4.3900e-07    1.000e-00  
  4.4000e-07    1.000e-00  
  4.4100e-07    1.000e-00  
  4.4200e-07    1.000e-00  
  4.4300e-07    1.000e-00  
  4.4400e-07    1.000e-00  
  4.4500e-07    1.000e-00  
  4.4600e-07    1.000e-00  
  4.4700e-07    1.000e-00  
  4.4800e-07    1.000e-00  
  4.4900e-07    1.000e-00  
  4.5000e-07    1.000e-00  
  4.5100e-07    1.000e-00  
  4.5200e-07    1.000e-00  
  4.5300e-07    4.940e-01  
  4.5400e-07   -2.699e-05  
  4.5500e-07    0.000e+00  
  4.5600e-07    0.000e+00  
  4.5700e-07    0.000e+00  
  4.5800e-07    0.000e+00  
  4.5900e-07    0.000e+00  
  4.6000e-07    0.000e+00  
  4.6100e-07    0.000e+00  
  4.6200e-07    0.000e+00  
  4.6300e-07    0.000e+00  
  4.6400e-07    0.000e+00  
  4.6500e-07    0.000e+00  
  4.6600e-07    0.000e+00  
  4.6700e-07    0.000e+00  
  4.6800e-07    0.000e+00  
  4.6900e-07    0.000e+00  
  4.7000e-07    0.000e+00  
  4.7100e-07    0.000e+00  
  4.7200e-07    0.000e+00  
  4.7300e-07   -1.394e-04  
  4.7400e-07   -1.962e-06  
  4.7500e-07    0.000e+00  
  4.7600e-07    0.000e+00  
  4.7700e-07    0.000e+00  
  4.7800e-07    0.000e+00  
  4.7900e-07    0.000e+00  
  4.8000e-07    0.000e+00  
  4.8100e-07    0.000e+00  
  4.8200e-07    0.000e+00  
  4.8300e-07    0.000e+00  
  4.8400e-07    0.000e+00  
  4.8500e-07    0.000e+00  
  4.8600e-07    0.000e+00  
  4.8700e-07    0.000e+00  
  4.8800e-07    0.000e+00  
  4.8900e-07    0.000e+00  
  4.9000e-07    0.000e+00  
  4.9100e-07    0.000e+00  
  4.9200e-07    0.000e+00  
  4.9300e-07    0.000e+00  
  4.9400e-07    0.000e+00  
  4.9500e-07    0.000e+00  
  4.9600e-07    0.000e+00  
  4.9700e-07    0.000e+00  
  4.9800e-07    0.000e+00  
  4.9900e-07    0.000e+00  
  5.0000e-07    0.000e+00  
y
 avg_power=-2.5254e-09  from= 1.0000e-09     to= 5.0000e-07
 tdlay=-1.9849e-08  targ= 5.3151e-08   trig= 7.3000e-08

          ***** job concluded
1****** HSPICE -- J-2014.09-SP2-2 64-BIT (Apr 17 2015) win64 ******             
 ******  
 

 ****** job statistics summary tnom=  25.000 temp=  25.000 ******

  ******  HSPICE Threads Information  ******

  Command Line Threads Count :     1
  Available CPU Count        :     8
  Actual Threads Count       :     1


  ******  Circuit Statistics  ******
  # nodes       =     130 # elements   =     316
  # resistors   =      32 # capacitors =     128 # inductors   =       0
  # mutual_inds =       0 # vccs       =      48 # vcvs        =      88
  # cccs        =       0 # ccvs       =       0 # volt_srcs   =      20
  # curr_srcs   =       0 # diodes     =       0 # bjts        =       0
  # jfets       =       0 # mosfets    =       0 # U elements  =       0
  # T elements  =       0 # W elements =       0 # B elements  =       0
  # S elements  =       0 # P elements =       0 # va device   =       0
  # vector_srcs =       0 # N elements =       0


  ******  Runtime Statistics (seconds)  ******

  analysis           time    # points   tot. iter  conv.iter
  op point           0.83           1         356
  transient         20.22         501        3746         665 rev=       128
  readin             0.01
  errchk             0.02
  setup              0.00
  output             0.00


           peak memory used         44.72 megabytes
           total cpu time           21.08 seconds
           total elapsed time       21.11 seconds
           job started at     17:16:08 12/30/2022
           job ended   at     17:16:29 12/30/2022


  lic: Release hspice token(s) 
 lic: total license checkout elapse time:        0.03(s)
